<?xml version="1.0" encoding="UTF-8"?>
<routes xmlns:xsi="http://www.w3.org/2001/XMLSchema-instance" xsi:noNamespaceSchemaLocation="http://sumo.dlr.de/xsd/routes_file.xsd">
	<vType id="pkw" vClass="passenger" speedDev="0.1" length="4.3" minGap="1.5"/>
	<trip id="137312_412_0" type="pkw" depart="0.0" from="-23283579#1" to="23283436"/>
	<trip id="155570_420_0" type="pkw" depart="0.0" from="-28675510#11" to="28675510#7"/>
	<trip id="114597_403_0" type="pkw" depart="1.0" from="22917421#3" to="-186623965#14"/>
	<trip id="76230_386_0" type="pkw" depart="4.0" from="-23283579#1" to="297047309#0"/>
	<trip id="156485_420_0" type="pkw" depart="5.0" from="22959552#0" to="28675510#7"/>
	<trip id="110248_401_0" type="pkw" depart="6.0" from="-23283579#1" to="297047309#0"/>
	<trip id="134603_411_0" type="pkw" depart="6.0" from="-28675510#11" to="28675510#7"/>
	<trip id="166776_424_0" type="pkw" depart="8.0" from="-28675510#11" to="-186623965#14"/>
	<trip id="137959_412_0" type="pkw" depart="9.0" from="-186623965#18" to="-22917421#4"/>
	<trip id="146152_416_0" type="pkw" depart="10.0" from="25166682#0" to="28675510#7"/>
	<trip id="140143_414_0" type="pkw" depart="10.0" from="-28675510#11" to="28675510#7"/>
	<trip id="134167_411_0" type="pkw" depart="11.0" from="-23283579#1" to="-186623965#14"/>
	<trip id="163043_422_0" type="pkw" depart="12.0" from="-28675510#11" to="8716827#0"/>
	<trip id="160358_421_0" type="pkw" depart="13.0" from="-23283579#1" to="-186623965#14"/>
	<trip id="135663_411_0" type="pkw" depart="14.0" from="-28675510#11" to="28675510#7"/>
	<trip id="149045_417_0" type="pkw" depart="17.0" from="-28675510#11" to="28675510#7"/>
	<trip id="142890_415_0" type="pkw" depart="18.0" from="-23283579#1" to="23283579#1"/>
	<trip id="158885_421_0" type="pkw" depart="20.0" from="22917421#3" to="28675510#7"/>
	<trip id="146111_416_0" type="pkw" depart="21.0" from="-28675510#11" to="-186623965#14"/>
	<trip id="140525_414_0" type="pkw" depart="21.0" from="186623965#9" to="186623965#17"/>
	<trip id="117517_404_0" type="pkw" depart="24.0" from="-28675510#11" to="-186623965#14"/>
	<trip id="119181_405_0" type="pkw" depart="26.0" from="186623965#9" to="42925825#0"/>
	<trip id="133416_410_0" type="pkw" depart="28.0" from="186623965#9" to="42925825#0"/>
	<trip id="131237_409_0" type="pkw" depart="28.0" from="-186623965#18" to="297047309#0"/>
	<trip id="138070_412_0" type="pkw" depart="29.0" from="22917421#3" to="186623965#17"/>
	<trip id="152887_419_0" type="pkw" depart="29.0" from="-28675510#11" to="8716827#0"/>
	<trip id="141355_415_0" type="pkw" depart="32.0" from="-186623965#18" to="42925825#0"/>
	<trip id="153496_420_0" type="pkw" depart="32.0" from="22917421#3" to="186623965#17"/>
	<trip id="154212_420_0" type="pkw" depart="32.0" from="-28675510#11" to="-186623965#14"/>
	<trip id="161942_421_0" type="pkw" depart="33.0" from="-42925825#2" to="42925825#0"/>
	<trip id="166162_424_0" type="pkw" depart="33.0" from="22959550#0" to="28675510#7"/>
	<trip id="155353_420_0" type="pkw" depart="34.0" from="22917421#3" to="186623965#17"/>
	<trip id="124742_406_0" type="pkw" depart="36.0" from="22917421#3" to="28675493"/>
	<trip id="131071_409_0" type="pkw" depart="36.0" from="-186623965#18" to="42925825#0"/>
	<trip id="134428_411_0" type="pkw" depart="37.0" from="-28675510#11" to="28675510#7"/>
	<trip id="126900_407_0" type="pkw" depart="39.0" from="-186623965#18" to="42925825#0"/>
	<trip id="164302_422_0" type="pkw" depart="40.0" from="-28675510#11" to="-186623965#14"/>
	<trip id="158136_421_0" type="pkw" depart="40.0" from="28675510#1" to="323416262"/>
	<trip id="126698_407_0" type="pkw" depart="41.0" from="-186623965#18" to="42925825#0"/>
	<trip id="122140_406_0" type="pkw" depart="44.0" from="22917421#3" to="23648008#2"/>
	<trip id="163025_422_0" type="pkw" depart="46.0" from="-28675510#11" to="8716807#1"/>
	<trip id="118788_405_0" type="pkw" depart="47.0" from="22917421#3" to="186623965#17"/>
	<trip id="131243_409_0" type="pkw" depart="48.0" from="-186623965#18" to="-186623965#14"/>
	<trip id="161216_421_0" type="pkw" depart="48.0" from="-186623965#18" to="42925825#0"/>
	<trip id="113370_402_0" type="pkw" depart="49.0" from="186623965#9" to="42925825#0"/>
	<trip id="159622_421_0" type="pkw" depart="51.0" from="-186623965#18" to="42925825#0"/>
	<trip id="163799_422_0" type="pkw" depart="55.0" from="-186623965#18" to="-22917421#4"/>
	<trip id="129175_408_0" type="pkw" depart="55.0" from="-23283579#1" to="323450710#0"/>
	<trip id="173747_427_0" type="pkw" depart="56.0" from="23283580#0" to="28675510#7"/>
	<trip id="144617_416_0" type="pkw" depart="56.0" from="22917421#3" to="186623965#17"/>
	<trip id="127809_407_0" type="pkw" depart="57.0" from="-23283579#1" to="23285888#0"/>
	<trip id="145282_416_0" type="pkw" depart="59.0" from="186623965#9" to="42925825#0"/>
	<trip id="84611_390_0" type="pkw" depart="61.0" from="-23283579#1" to="-23648008#0"/>
	<trip id="138793_413_0" type="pkw" depart="64.0" from="-297047309#0" to="28675510#7"/>
	<trip id="162890_422_0" type="pkw" depart="64.0" from="8716807#1" to="28675510#7"/>
	<trip id="111571_401_0" type="pkw" depart="67.0" from="-353069169#0" to="24487264"/>
	<trip id="121484_406_0" type="pkw" depart="68.0" from="-23283579#1" to="133081987#3"/>
	<trip id="91556_392_0" type="pkw" depart="70.0" from="-23283579#1" to="23840972"/>
	<trip id="147744_416_0" type="pkw" depart="72.0" from="-186623965#18" to="42925825#0"/>
	<trip id="105090_398_0" type="pkw" depart="73.0" from="-23283579#1" to="-186623965#14"/>
	<trip id="162497_421_0" type="pkw" depart="73.0" from="22917421#3" to="186623965#17"/>
	<trip id="142950_415_0" type="pkw" depart="74.0" from="-28675510#11" to="155723703#0"/>
	<trip id="107217_400_0" type="pkw" depart="83.0" from="-28675510#11" to="-186623965#14"/>
	<trip id="174787_427_0" type="pkw" depart="87.0" from="22959550#3" to="28675510#7"/>
	<trip id="150593_418_0" type="pkw" depart="97.0" from="22959552#0" to="22959552#0"/>
	<trip id="152801_419_0" type="pkw" depart="99.0" from="-297047307" to="297047309#0"/>
	<trip id="157572_421_0" type="pkw" depart="103.0" from="23283470#0" to="323416262"/>
	<trip id="139269_413_0" type="pkw" depart="107.0" from="-23283579#1" to="-297047308"/>
	<trip id="145512_416_0" type="pkw" depart="108.0" from="22917421#3" to="186623965#17"/>
	<trip id="149422_417_0" type="pkw" depart="110.0" from="22917421#3" to="-23840935"/>
	<trip id="140363_414_0" type="pkw" depart="113.0" from="22917421#3" to="-186623965#14"/>
	<trip id="146391_416_0" type="pkw" depart="113.0" from="-28675510#0" to="28675510#7"/>
	<trip id="171749_426_0" type="pkw" depart="114.0" from="-23283579#1" to="-297047309#0"/>
	<trip id="138639_413_0" type="pkw" depart="114.0" from="186623965#9" to="186623965#17"/>
	<trip id="148207_417_0" type="pkw" depart="120.0" from="-186623965#18" to="42925825#0"/>
	<trip id="146387_416_0" type="pkw" depart="121.0" from="-28675510#11" to="-186623965#14"/>
	<trip id="175709_428_0" type="pkw" depart="124.0" from="-186623965#18" to="-186623965#14"/>
	<trip id="171184_426_0" type="pkw" depart="126.0" from="133081987#0" to="23283436"/>
	<trip id="175131_428_0" type="pkw" depart="128.0" from="23840713#2" to="42925825#0"/>
	<trip id="150411_418_0" type="pkw" depart="129.0" from="22917421#3" to="23840972"/>
	<trip id="137686_412_0" type="pkw" depart="130.0" from="-186623965#18" to="42925825#0"/>
	<trip id="148039_417_0" type="pkw" depart="131.0" from="-186623965#16" to="186623965#17"/>
	<trip id="149205_417_0" type="pkw" depart="138.0" from="8716807#1" to="323416262"/>
	<trip id="109527_401_0" type="pkw" depart="139.0" from="-23283579#1" to="297047309#0"/>
	<trip id="120970_405_0" type="pkw" depart="143.0" from="-23283579#1" to="23283470#5"/>
	<trip id="164277_422_0" type="pkw" depart="143.0" from="23285888#0" to="297047309#0"/>
	<trip id="144017_416_0" type="pkw" depart="148.0" from="-353069169#0" to="323416262"/>
	<trip id="166783_424_0" type="pkw" depart="149.0" from="22917421#3" to="186623965#17"/>
	<trip id="108769_400_0" type="pkw" depart="156.0" from="-186623965#18" to="-22917421#4"/>
	<trip id="148419_417_0" type="pkw" depart="163.0" from="133081987#3" to="297047309#0"/>
	<trip id="146495_416_0" type="pkw" depart="169.0" from="23840712#0" to="-186623965#14"/>
	<trip id="96268_394_0" type="pkw" depart="169.0" from="-186623965#18" to="-22917421#4"/>
	<trip id="138031_412_0" type="pkw" depart="171.0" from="-23283579#1" to="-23840935"/>
	<trip id="174717_427_0" type="pkw" depart="173.0" from="22917421#3" to="186623965#17"/>
	<trip id="158300_421_0" type="pkw" depart="175.0" from="-23283579#1" to="-23648008#0"/>
	<trip id="142307_415_0" type="pkw" depart="175.0" from="22917421#3" to="186623965#17"/>
	<trip id="167565_425_0" type="pkw" depart="182.0" from="-25166682#0" to="23283579#1"/>
	<trip id="139530_413_0" type="pkw" depart="183.0" from="186623965#9" to="42925825#0"/>
	<trip id="179907_430_0" type="pkw" depart="183.0" from="23283470#0" to="23283579#1"/>
	<trip id="149274_417_0" type="pkw" depart="185.0" from="-297047309#0" to="-23840888#0"/>
	<trip id="109384_401_0" type="pkw" depart="186.0" from="186623965#9" to="323450710#0"/>
	<trip id="139438_413_0" type="pkw" depart="187.0" from="-297047309#0" to="28675510#7"/>
	<trip id="157954_421_0" type="pkw" depart="188.0" from="22917421#3" to="186623965#17"/>
	<trip id="139869_414_0" type="pkw" depart="189.0" from="-28675510#11" to="186623965#17"/>
	<trip id="153335_420_0" type="pkw" depart="203.0" from="-23283579#1" to="297047309#0"/>
	<trip id="164388_422_0" type="pkw" depart="205.0" from="-186623965#18" to="-22917421#4"/>
	<trip id="169793_426_0" type="pkw" depart="205.0" from="290365598#0" to="-186623965#14"/>
	<trip id="145712_416_0" type="pkw" depart="205.0" from="-28675510#0" to="28675510#7"/>
	<trip id="146699_416_0" type="pkw" depart="206.0" from="-23283579#1" to="297047309#0"/>
	<trip id="83049_390_0" type="pkw" depart="208.0" from="-4936412" to="8716827#0"/>
	<trip id="154420_420_0" type="pkw" depart="211.0" from="22917421#3" to="186623965#17"/>
	<trip id="67978_381_0" type="pkw" depart="212.0" from="-4936412" to="8716827#0"/>
	<trip id="177639_429_0" type="pkw" depart="214.0" from="-186623965#18" to="23283473"/>
	<trip id="149528_417_0" type="pkw" depart="214.0" from="-23840712#0" to="28675510#7"/>
	<trip id="118988_405_0" type="pkw" depart="215.0" from="-186623965#18" to="-22917421#4"/>
	<trip id="171631_426_0" type="pkw" depart="215.0" from="23283470#0" to="23283579#1"/>
	<trip id="161682_421_0" type="pkw" depart="219.0" from="-23840712#0" to="28675510#7"/>
	<trip id="154646_420_0" type="pkw" depart="219.0" from="25166682#0" to="323450710#0"/>
	<trip id="168963_425_0" type="pkw" depart="222.0" from="-28675493" to="23283579#1"/>
	<trip id="165190_423_0" type="pkw" depart="227.0" from="-186623965#18" to="-23840935"/>
	<trip id="122677_406_0" type="pkw" depart="241.0" from="-4936412" to="8716827#0"/>
	<trip id="150535_418_0" type="pkw" depart="244.0" from="22917421#3" to="186623965#17"/>
	<trip id="166238_424_0" type="pkw" depart="249.0" from="42925825#0" to="42925825#0"/>
	<trip id="171497_426_0" type="pkw" depart="256.0" from="23647126" to="23283579#1"/>
	<trip id="139487_413_0" type="pkw" depart="256.0" from="-4936412" to="8716827#0"/>
	<trip id="148577_417_0" type="pkw" depart="257.0" from="186623965#9" to="42925825#0"/>
	<trip id="118123_405_0" type="pkw" depart="258.0" from="-186623965#18" to="-23840935"/>
	<trip id="131441_410_0" type="pkw" depart="259.0" from="-297047309#0" to="23283579#1"/>
	<trip id="151819_419_0" type="pkw" depart="264.0" from="22917421#3" to="186623965#17"/>
	<trip id="137017_412_0" type="pkw" depart="266.0" from="-186623965#18" to="-22917421#4"/>
	<trip id="154649_420_0" type="pkw" depart="266.0" from="22959550#3" to="42925825#0"/>
	<trip id="166158_424_0" type="pkw" depart="267.0" from="-297047309#0" to="23283579#1"/>
	<trip id="131919_410_0" type="pkw" depart="267.0" from="-186623965#18" to="297047309#0"/>
	<trip id="105921_399_0" type="pkw" depart="268.0" from="186623965#9" to="42925825#0"/>
	<trip id="110653_401_0" type="pkw" depart="271.0" from="186623965#9" to="42925825#0"/>
	<trip id="156503_420_0" type="pkw" depart="272.0" from="297047308" to="297047309#0"/>
	<trip id="136088_411_0" type="pkw" depart="275.0" from="-4936412" to="8716827#0"/>
	<trip id="173519_427_0" type="pkw" depart="277.0" from="22917421#3" to="186623965#17"/>
	<trip id="148727_417_0" type="pkw" depart="279.0" from="23283579#1" to="23283579#1"/>
	<trip id="143994_416_0" type="pkw" depart="281.0" from="186623965#9" to="42925825#0"/>
	<trip id="161175_421_0" type="pkw" depart="284.0" from="-23283579#1" to="-186623965#14"/>
	<trip id="115107_403_0" type="pkw" depart="288.0" from="-4936412" to="8716827#0"/>
	<trip id="110175_401_0" type="pkw" depart="290.0" from="-4936412" to="155723703#0"/>
	<trip id="82749_390_0" type="pkw" depart="296.0" from="-4936412" to="155723703#0"/>
	<trip id="177623_429_0" type="pkw" depart="297.0" from="23647118" to="297047309#0"/>
	<trip id="119370_405_0" type="pkw" depart="298.0" from="-186623965#18" to="-28675493"/>
	<trip id="104777_398_0" type="pkw" depart="300.0" from="-4936412" to="8716827#0"/>
	<trip id="162709_422_0" type="pkw" depart="301.0" from="28675510#1" to="42925825#0"/>
	<trip id="157758_421_0" type="pkw" depart="304.0" from="186623965#9" to="42925825#0"/>
	<trip id="173176_427_0" type="pkw" depart="314.0" from="-42925825#2" to="60909001"/>
	<trip id="183261_431_0" type="pkw" depart="316.0" from="23840713#2" to="42925825#0"/>
	<trip id="148572_417_0" type="pkw" depart="317.0" from="-186623965#18" to="323450710#0"/>
	<trip id="175527_428_0" type="pkw" depart="318.0" from="-42925825#2" to="-297047310#2"/>
	<trip id="155960_420_0" type="pkw" depart="321.0" from="-23283472#2" to="23283436"/>
	<trip id="133805_411_0" type="pkw" depart="323.0" from="-23283579#1" to="23840972"/>
	<trip id="148797_417_0" type="pkw" depart="325.0" from="-23283579#1" to="42925825#0"/>
	<trip id="176921_429_0" type="pkw" depart="327.0" from="-23283579#1" to="28675510#7"/>
	<trip id="150719_418_0" type="pkw" depart="327.0" from="-25166682#0" to="28675510#7"/>
	<trip id="163211_422_0" type="pkw" depart="329.0" from="-23283579#1" to="-186623965#14"/>
	<trip id="172172_426_0" type="pkw" depart="333.0" from="22917421#3" to="42925825#0"/>
	<trip id="163292_422_0" type="pkw" depart="340.0" from="-23283579#1" to="42925825#0"/>
	<trip id="160003_421_0" type="pkw" depart="340.0" from="23283580#0" to="23286179#2"/>
	<trip id="164927_423_0" type="pkw" depart="343.0" from="-23283579#1" to="297047309#0"/>
	<trip id="164812_422_0" type="pkw" depart="343.0" from="-23840712#0" to="297047309#0"/>
	<trip id="161177_421_0" type="pkw" depart="344.0" from="23840712#1" to="297047309#0"/>
	<trip id="150368_418_0" type="pkw" depart="346.0" from="-186623965#18" to="-290365598#1"/>
	<trip id="165987_424_0" type="pkw" depart="347.0" from="186623965#9" to="42925825#0"/>
	<trip id="142315_415_0" type="pkw" depart="348.0" from="-23283579#1" to="297047309#0"/>
	<trip id="121828_406_0" type="pkw" depart="350.0" from="-23283579#1" to="23648008#2"/>
	<trip id="154381_420_0" type="pkw" depart="352.0" from="22959550#3" to="28675510#7"/>
	<trip id="81429_389_0" type="pkw" depart="352.0" from="-23283579#1" to="23647126"/>
	<trip id="161283_421_0" type="pkw" depart="354.0" from="-23283579#1" to="-186623965#14"/>
	<trip id="188348_433_0" type="pkw" depart="354.0" from="28675510#1" to="42925825#0"/>
	<trip id="179877_430_0" type="pkw" depart="355.0" from="23283580#0" to="23286179#2"/>
	<trip id="173080_427_0" type="pkw" depart="356.0" from="22917421#3" to="186623965#17"/>
	<trip id="140513_414_0" type="pkw" depart="358.0" from="-23283579#1" to="297047309#0"/>
	<trip id="154500_420_0" type="pkw" depart="358.0" from="23283580#0" to="23286179#2"/>
	<trip id="161086_421_0" type="pkw" depart="358.0" from="23286179#2" to="42925825#0"/>
	<trip id="126208_407_0" type="pkw" depart="359.0" from="-42925825#2" to="297047309#0"/>
	<trip id="147697_416_0" type="pkw" depart="359.0" from="186623965#9" to="42925825#0"/>
	<trip id="126688_407_0" type="pkw" depart="363.0" from="-23283579#1" to="-23840972"/>
	<trip id="113945_402_0" type="pkw" depart="363.0" from="-28675510#11" to="297047310#4"/>
	<trip id="116644_404_0" type="pkw" depart="366.0" from="-186623965#18" to="297047309#0"/>
	<trip id="186152_432_0" type="pkw" depart="367.0" from="28675510#1" to="28675510#7"/>
	<trip id="168666_425_0" type="pkw" depart="368.0" from="22959550#0" to="28675510#7"/>
	<trip id="171283_426_0" type="pkw" depart="371.0" from="23283580#0" to="28675510#7"/>
	<trip id="176781_429_0" type="pkw" depart="373.0" from="186623965#17" to="42925825#0"/>
	<trip id="186808_432_0" type="pkw" depart="373.0" from="23840713#2" to="28675510#7"/>
	<trip id="148143_417_0" type="pkw" depart="374.0" from="-28675510#11" to="8716827#0"/>
	<trip id="183189_431_0" type="pkw" depart="375.0" from="23283474" to="22959552#0"/>
	<trip id="160078_421_0" type="pkw" depart="375.0" from="-4936412" to="8716827#0"/>
	<trip id="129126_408_0" type="pkw" depart="376.0" from="-28675510#11" to="-186623965#14"/>
	<trip id="127322_407_0" type="pkw" depart="377.0" from="-186623965#18" to="-28675510#5"/>
	<trip id="119014_405_0" type="pkw" depart="380.0" from="132042183" to="-23283472#2"/>
	<trip id="163913_422_0" type="pkw" depart="381.0" from="-4936412" to="8716827#0"/>
	<trip id="156093_420_0" type="pkw" depart="384.0" from="23283579#1" to="23283579#1"/>
	<trip id="98770_395_0" type="pkw" depart="385.0" from="-186623965#18" to="23840935"/>
	<trip id="161788_421_0" type="pkw" depart="389.0" from="186623965#9" to="-186623965#14"/>
	<trip id="133534_410_0" type="pkw" depart="392.0" from="160807420" to="8716827#0"/>
	<trip id="102131_396_0" type="pkw" depart="392.0" from="-4936412" to="8716827#0"/>
	<trip id="145098_416_0" type="pkw" depart="393.0" from="-297047309#0" to="28675510#7"/>
	<trip id="151627_419_0" type="pkw" depart="394.0" from="186623965#9" to="186623965#17"/>
	<trip id="143015_415_0" type="pkw" depart="395.0" from="-186623965#18" to="323450710#0"/>
	<trip id="147083_416_0" type="pkw" depart="396.0" from="186623965#9" to="-22917421#4"/>
	<trip id="117318_404_0" type="pkw" depart="397.0" from="-186623965#18" to="323450710#0"/>
	<trip id="151894_419_0" type="pkw" depart="400.0" from="-23283579#1" to="25166682#0"/>
	<trip id="107138_400_0" type="pkw" depart="403.0" from="-23283579#1" to="297047309#0"/>
	<trip id="173908_427_0" type="pkw" depart="405.0" from="290365598#0" to="28675510#7"/>
	<trip id="144870_416_0" type="pkw" depart="407.0" from="-186623965#18" to="42925825#0"/>
	<trip id="148075_417_0" type="pkw" depart="408.0" from="-23283579#1" to="-24610382"/>
	<trip id="125134_406_0" type="pkw" depart="410.0" from="-23283579#1" to="297047309#0"/>
	<trip id="120462_405_0" type="pkw" depart="412.0" from="-23283579#1" to="297047309#0"/>
	<trip id="173839_427_0" type="pkw" depart="412.0" from="186623965#17" to="186623965#17"/>
	<trip id="169806_426_0" type="pkw" depart="412.0" from="22959552#1" to="186623965#17"/>
	<trip id="154166_420_0" type="pkw" depart="414.0" from="160807420" to="23283436"/>
	<trip id="91778_392_0" type="pkw" depart="415.0" from="-23283579#1" to="25166682#0"/>
	<trip id="182995_431_0" type="pkw" depart="415.0" from="22959550#0" to="297047309#0"/>
	<trip id="125779_406_0" type="pkw" depart="417.0" from="-186623965#18" to="-186623965#14"/>
	<trip id="150248_418_0" type="pkw" depart="417.0" from="-23283579#1" to="297047309#0"/>
	<trip id="144670_416_0" type="pkw" depart="419.0" from="-23283579#1" to="297047309#0"/>
	<trip id="113179_402_0" type="pkw" depart="421.0" from="-23283579#1" to="297047309#0"/>
	<trip id="131459_410_0" type="pkw" depart="424.0" from="-23283579#1" to="-23283580#1"/>
	<trip id="182476_431_0" type="pkw" depart="424.0" from="-4936412" to="8716827#0"/>
	<trip id="73425_385_0" type="pkw" depart="430.0" from="-4936412" to="22959552#0"/>
	<trip id="156917_421_0" type="pkw" depart="432.0" from="-186623965#18" to="42925825#0"/>
	<trip id="137365_412_0" type="pkw" depart="435.0" from="22917421#3" to="186623965#17"/>
	<trip id="127515_407_0" type="pkw" depart="437.0" from="-23283579#1" to="-297047310#2"/>
	<trip id="110782_401_0" type="pkw" depart="438.0" from="22917421#3" to="186623965#17"/>
	<trip id="165874_424_0" type="pkw" depart="440.0" from="-186623965#18" to="323450710#0"/>
	<trip id="145872_416_0" type="pkw" depart="440.0" from="-186623965#18" to="42925825#0"/>
	<trip id="97682_395_0" type="pkw" depart="441.0" from="-4936412" to="8716827#0"/>
	<trip id="161554_421_0" type="pkw" depart="441.0" from="-186623965#18" to="42925825#0"/>
	<trip id="158422_421_0" type="pkw" depart="443.0" from="22917421#3" to="186623965#17"/>
	<trip id="159470_421_0" type="pkw" depart="443.0" from="-22917421#14" to="186623965#17"/>
	<trip id="117311_404_0" type="pkw" depart="446.0" from="-186623965#18" to="42925825#0"/>
	<trip id="121002_405_0" type="pkw" depart="447.0" from="-186623965#18" to="8716807#1"/>
	<trip id="140157_414_0" type="pkw" depart="447.0" from="-186623965#18" to="-186623965#14"/>
	<trip id="170300_426_0" type="pkw" depart="447.0" from="23286179#2" to="28675510#7"/>
	<trip id="139953_414_0" type="pkw" depart="448.0" from="-186623965#18" to="-186623965#14"/>
	<trip id="164109_422_0" type="pkw" depart="449.0" from="-186623965#18" to="23840888#0"/>
	<trip id="165217_423_0" type="pkw" depart="449.0" from="22959552#0" to="-186623965#14"/>
	<trip id="193602_435_0" type="pkw" depart="453.0" from="23840713#2" to="-186623965#14"/>
	<trip id="139889_414_0" type="pkw" depart="458.0" from="-186623965#18" to="23840972"/>
	<trip id="125864_406_0" type="pkw" depart="459.0" from="22959552#0" to="22959552#0"/>
	<trip id="150569_418_0" type="pkw" depart="460.0" from="-186623965#18" to="-186623965#14"/>
	<trip id="140331_414_0" type="pkw" depart="461.0" from="-186623965#18" to="-186623965#14"/>
	<trip id="148809_417_0" type="pkw" depart="465.0" from="-186623965#18" to="-186623965#14"/>
	<trip id="119256_405_0" type="pkw" depart="469.0" from="-23283579#1" to="297047309#0"/>
	<trip id="145243_416_0" type="pkw" depart="473.0" from="-23283579#1" to="23648008#0"/>
	<trip id="151321_418_0" type="pkw" depart="473.0" from="-42925825#2" to="-186623965#14"/>
	<trip id="155327_420_0" type="pkw" depart="477.0" from="-186623965#18" to="-186623965#14"/>
	<trip id="149988_417_0" type="pkw" depart="479.0" from="-23283579#1" to="297047309#0"/>
	<trip id="192710_435_0" type="pkw" depart="479.0" from="22959550#0" to="297047309#0"/>
	<trip id="158415_421_0" type="pkw" depart="480.0" from="23647126" to="28675510#7"/>
	<trip id="123267_406_0" type="pkw" depart="482.0" from="-23283579#1" to="-23840935"/>
	<trip id="183972_431_0" type="pkw" depart="482.0" from="-186623965#18" to="42925825#0"/>
	<trip id="162038_421_0" type="pkw" depart="483.0" from="-42925825#2" to="23283470#2"/>
	<trip id="114948_403_0" type="pkw" depart="484.0" from="-23283579#1" to="23840713#0"/>
	<trip id="136450_411_0" type="pkw" depart="484.0" from="-186623965#18" to="-186623965#14"/>
	<trip id="174472_427_0" type="pkw" depart="484.0" from="23840888#1" to="-186623965#14"/>
	<trip id="143427_415_0" type="pkw" depart="486.0" from="-23283579#1" to="28675510#4"/>
	<trip id="172235_426_0" type="pkw" depart="486.0" from="-186623965#18" to="-186623965#14"/>
	<trip id="165008_423_0" type="pkw" depart="487.0" from="-186623965#18" to="-186623965#14"/>
	<trip id="183166_431_0" type="pkw" depart="487.0" from="22917421#3" to="-186623965#14"/>
	<trip id="115187_403_0" type="pkw" depart="488.0" from="-23283579#1" to="8716827#0"/>
	<trip id="182100_431_0" type="pkw" depart="488.0" from="23283474" to="22959552#0"/>
	<trip id="173169_427_0" type="pkw" depart="488.0" from="22959550#3" to="-186623965#14"/>
	<trip id="177062_429_0" type="pkw" depart="488.0" from="22959550#0" to="23283435#1"/>
	<trip id="188396_433_0" type="pkw" depart="492.0" from="-28675510#0" to="28675510#7"/>
	<trip id="125269_406_0" type="pkw" depart="493.0" from="-23283579#1" to="-297047309#0"/>
	<trip id="164258_422_0" type="pkw" depart="495.0" from="-186623965#18" to="-186623965#14"/>
	<trip id="159525_421_0" type="pkw" depart="503.0" from="-186623965#18" to="-186623965#14"/>
	<trip id="123164_406_0" type="pkw" depart="505.0" from="-297047309#0" to="23648008#2"/>
	<trip id="175650_428_0" type="pkw" depart="505.0" from="-186623965#18" to="-186623965#14"/>
	<trip id="144520_416_0" type="pkw" depart="507.0" from="-186623965#18" to="-186623965#14"/>
	<trip id="177057_429_0" type="pkw" depart="508.0" from="22959552#0" to="-186623965#14"/>
	<trip id="145851_416_0" type="pkw" depart="508.0" from="-23283579#1" to="-186623965#14"/>
	<trip id="178143_430_0" type="pkw" depart="508.0" from="-186623965#18" to="-186623965#14"/>
	<trip id="140650_414_0" type="pkw" depart="513.0" from="-23283579#1" to="23840972"/>
	<trip id="113241_402_0" type="pkw" depart="517.0" from="-23283579#1" to="-186623965#14"/>
	<trip id="132161_410_0" type="pkw" depart="518.0" from="-25168493" to="25168493"/>
	<trip id="136774_411_0" type="pkw" depart="519.0" from="-23283579#1" to="23283579#1"/>
	<trip id="146263_416_0" type="pkw" depart="522.0" from="-23283579#1" to="23285888#0"/>
	<trip id="174305_427_0" type="pkw" depart="523.0" from="-23648008#1" to="323450710#0"/>
	<trip id="128058_407_0" type="pkw" depart="528.0" from="-186623965#18" to="-186623965#14"/>
	<trip id="172902_426_0" type="pkw" depart="530.0" from="-186623965#18" to="-186623965#14"/>
	<trip id="172326_426_0" type="pkw" depart="530.0" from="22959552#2" to="-186623965#14"/>
	<trip id="147964_416_0" type="pkw" depart="533.0" from="-186623965#18" to="-186623965#14"/>
	<trip id="167598_425_0" type="pkw" depart="537.0" from="-186623965#18" to="-186623965#14"/>
	<trip id="186004_432_0" type="pkw" depart="541.0" from="-23283579#1" to="-186623965#14"/>
	<trip id="162377_421_0" type="pkw" depart="542.0" from="-42925825#2" to="-186623965#14"/>
	<trip id="169617_426_0" type="pkw" depart="544.0" from="-42925825#2" to="-186623965#14"/>
	<trip id="152668_419_0" type="pkw" depart="544.0" from="160807420" to="23283436"/>
	<trip id="101612_396_0" type="pkw" depart="544.0" from="-23283579#1" to="323450710#0"/>
	<trip id="172564_426_0" type="pkw" depart="546.0" from="-42925825#2" to="-186623965#14"/>
	<trip id="183179_431_0" type="pkw" depart="548.0" from="-42925825#2" to="-186623965#14"/>
	<trip id="129141_408_0" type="pkw" depart="550.0" from="186623965#9" to="155600123#0"/>
	<trip id="181081_431_0" type="pkw" depart="550.0" from="-42925825#2" to="-186623965#14"/>
	<trip id="175093_428_0" type="pkw" depart="551.0" from="-186623965#18" to="-186623965#14"/>
	<trip id="164113_422_0" type="pkw" depart="553.0" from="-42925825#2" to="-186623965#14"/>
	<trip id="149443_417_0" type="pkw" depart="554.0" from="-23283579#1" to="297047309#0"/>
	<trip id="187770_433_0" type="pkw" depart="555.0" from="28675510#1" to="-186623965#14"/>
	<trip id="120853_405_0" type="pkw" depart="555.0" from="-42925825#2" to="-186623965#14"/>
	<trip id="181729_431_0" type="pkw" depart="556.0" from="160807420" to="23283436"/>
	<trip id="172455_426_0" type="pkw" depart="556.0" from="-186623965#18" to="42925825#0"/>
	<trip id="156099_420_0" type="pkw" depart="557.0" from="-186623965#18" to="-186623965#14"/>
	<trip id="72330_384_0" type="pkw" depart="557.0" from="-4936412" to="23283436"/>
	<trip id="162706_422_0" type="pkw" depart="558.0" from="-186623965#18" to="8716827#0"/>
	<trip id="164918_423_0" type="pkw" depart="559.0" from="-23283579#1" to="23840972"/>
	<trip id="119974_405_0" type="pkw" depart="559.0" from="-186623965#18" to="-186623965#14"/>
	<trip id="167080_425_0" type="pkw" depart="559.0" from="-42925825#2" to="-186623965#14"/>
	<trip id="176453_429_0" type="pkw" depart="559.0" from="23840713#2" to="155723703#0"/>
	<trip id="139696_413_0" type="pkw" depart="560.0" from="-186623965#18" to="-28675494#1"/>
	<trip id="148272_417_0" type="pkw" depart="561.0" from="-42925825#2" to="-186623965#14"/>
	<trip id="142098_415_0" type="pkw" depart="562.0" from="160807420" to="23283436"/>
	<trip id="163798_422_0" type="pkw" depart="566.0" from="23286179#2" to="23286179#2"/>
	<trip id="183010_431_0" type="pkw" depart="567.0" from="133081987#3" to="23283436"/>
	<trip id="186829_432_0" type="pkw" depart="570.0" from="-186623965#18" to="-186623965#14"/>
	<trip id="169117_425_0" type="pkw" depart="572.0" from="23283579#1" to="23283579#1"/>
	<trip id="181087_431_0" type="pkw" depart="578.0" from="-186623965#18" to="-186623965#14"/>
	<trip id="136072_411_0" type="pkw" depart="579.0" from="-186623965#18" to="-186623965#14"/>
	<trip id="153013_419_0" type="pkw" depart="580.0" from="-23648008#0" to="23647126"/>
	<trip id="171650_426_0" type="pkw" depart="581.0" from="-186623965#18" to="-186623965#14"/>
	<trip id="143990_416_0" type="pkw" depart="582.0" from="-186623965#18" to="25166682#0"/>
	<trip id="141708_415_0" type="pkw" depart="586.0" from="-23283579#0" to="28675510#7"/>
	<trip id="179463_430_0" type="pkw" depart="596.0" from="23283472#0" to="28675510#7"/>
	<trip id="180594_430_0" type="pkw" depart="596.0" from="-186623965#18" to="-186623965#14"/>
	<trip id="161146_421_0" type="pkw" depart="598.0" from="23283470#5" to="22959552#0"/>
	<trip id="198495_436_0" type="pkw" depart="598.0" from="-186623965#18" to="-186623965#14"/>
	<trip id="188240_433_0" type="pkw" depart="600.0" from="23647118" to="28675510#7"/>
	<trip id="181024_431_0" type="pkw" depart="603.0" from="-186623965#18" to="-186623965#14"/>
	<trip id="114810_403_0" type="pkw" depart="605.0" from="-186623965#18" to="-186623965#14"/>
	<trip id="152783_419_0" type="pkw" depart="605.0" from="-186623965#18" to="-186623965#14"/>
	<trip id="179960_430_0" type="pkw" depart="606.0" from="-186623965#18" to="-186623965#14"/>
	<trip id="163771_422_0" type="pkw" depart="610.0" from="-42925825#2" to="-186623965#14"/>
	<trip id="144651_416_0" type="pkw" depart="611.0" from="-297047309#0" to="28675510#7"/>
	<trip id="157283_421_0" type="pkw" depart="612.0" from="-42925825#2" to="-186623965#14"/>
	<trip id="150661_418_0" type="pkw" depart="614.0" from="-42925825#2" to="-186623965#14"/>
	<trip id="157652_421_0" type="pkw" depart="614.0" from="22959550#4" to="28675510#7"/>
	<trip id="160648_421_0" type="pkw" depart="616.0" from="-42925825#2" to="-186623965#14"/>
	<trip id="185150_432_0" type="pkw" depart="618.0" from="-42925825#2" to="-186623965#14"/>
	<trip id="162109_421_0" type="pkw" depart="619.0" from="-42925825#2" to="-186623965#14"/>
	<trip id="186097_432_0" type="pkw" depart="619.0" from="23840713#2" to="42925825#0"/>
	<trip id="156763_421_0" type="pkw" depart="620.0" from="-186623965#18" to="-186623965#14"/>
	<trip id="157192_421_0" type="pkw" depart="624.0" from="-42925825#2" to="-186623965#14"/>
	<trip id="169336_425_0" type="pkw" depart="625.0" from="-186623965#18" to="-186623965#14"/>
	<trip id="173975_427_0" type="pkw" depart="626.0" from="-42925825#2" to="-186623965#14"/>
	<trip id="124025_406_0" type="pkw" depart="629.0" from="-42925825#2" to="-186623965#14"/>
	<trip id="180787_430_0" type="pkw" depart="630.0" from="-42925825#2" to="-186623965#14"/>
	<trip id="106485_399_0" type="pkw" depart="630.0" from="-186623965#18" to="-186623965#14"/>
	<trip id="158291_421_0" type="pkw" depart="631.0" from="-23283579#1" to="155723703#0"/>
	<trip id="136770_411_0" type="pkw" depart="632.0" from="-42925825#2" to="-186623965#14"/>
	<trip id="171187_426_0" type="pkw" depart="633.0" from="-23283579#1" to="323450710#0"/>
	<trip id="138406_412_0" type="pkw" depart="634.0" from="-186623965#18" to="-186623965#14"/>
	<trip id="131994_410_0" type="pkw" depart="634.0" from="-42925825#2" to="-186623965#14"/>
	<trip id="163840_422_0" type="pkw" depart="634.0" from="-186623965#18" to="-186623965#14"/>
	<trip id="147139_416_0" type="pkw" depart="635.0" from="-186623965#18" to="-186623965#14"/>
	<trip id="164471_422_0" type="pkw" depart="636.0" from="-42925825#2" to="-186623965#14"/>
	<trip id="198543_436_0" type="pkw" depart="639.0" from="-23283579#1" to="-186623965#14"/>
	<trip id="137709_412_0" type="pkw" depart="640.0" from="-42925825#2" to="-186623965#14"/>
	<trip id="122500_406_0" type="pkw" depart="641.0" from="-23283579#1" to="8716827#0"/>
	<trip id="145935_416_0" type="pkw" depart="643.0" from="-23283579#1" to="-22917421#4"/>
	<trip id="120376_405_0" type="pkw" depart="645.0" from="-42925825#2" to="-186623965#14"/>
	<trip id="88194_391_0" type="pkw" depart="647.0" from="-23283579#1" to="-22917421#4"/>
	<trip id="116243_404_0" type="pkw" depart="647.0" from="-42925825#2" to="-186623965#14"/>
	<trip id="160314_421_0" type="pkw" depart="648.0" from="-186623965#18" to="-186623965#14"/>
	<trip id="189348_434_0" type="pkw" depart="651.0" from="-23283579#1" to="-22917421#4"/>
	<trip id="84709_390_0" type="pkw" depart="654.0" from="-186623965#18" to="-186623965#14"/>
	<trip id="169432_426_0" type="pkw" depart="655.0" from="-186623965#18" to="-186623965#14"/>
	<trip id="132815_410_0" type="pkw" depart="657.0" from="-186623965#18" to="-186623965#14"/>
	<trip id="160788_421_0" type="pkw" depart="657.0" from="-186623965#18" to="-186623965#14"/>
	<trip id="194759_436_0" type="pkw" depart="658.0" from="-23283579#1" to="-22917421#4"/>
	<trip id="178336_430_0" type="pkw" depart="658.0" from="-42925825#2" to="-186623965#14"/>
	<trip id="177446_429_0" type="pkw" depart="661.0" from="-23283579#1" to="8716827#0"/>
	<trip id="172442_426_0" type="pkw" depart="661.0" from="28675510#1" to="22959552#0"/>
	<trip id="167549_425_0" type="pkw" depart="663.0" from="-42925825#2" to="-186623965#14"/>
	<trip id="151121_418_0" type="pkw" depart="665.0" from="-4936412" to="23283436"/>
	<trip id="163220_422_0" type="pkw" depart="665.0" from="-23283579#1" to="-186623965#14"/>
	<trip id="116860_404_0" type="pkw" depart="666.0" from="-42925825#2" to="-186623965#14"/>
	<trip id="136967_411_0" type="pkw" depart="670.0" from="-23283579#1" to="25166682#0"/>
	<trip id="158044_421_0" type="pkw" depart="671.0" from="-42925825#2" to="-186623965#14"/>
	<trip id="159111_421_0" type="pkw" depart="673.0" from="-186623965#18" to="-186623965#14"/>
	<trip id="160519_421_0" type="pkw" depart="674.0" from="-42925825#2" to="-186623965#14"/>
	<trip id="179875_430_0" type="pkw" depart="678.0" from="-42925825#2" to="186623965#17"/>
	<trip id="122756_406_0" type="pkw" depart="679.0" from="-186623965#18" to="-186623965#14"/>
	<trip id="134615_411_0" type="pkw" depart="679.0" from="-4936412" to="8716827#0"/>
	<trip id="175178_428_0" type="pkw" depart="680.0" from="-186623965#18" to="-186623965#14"/>
	<trip id="194027_435_0" type="pkw" depart="681.0" from="-23283472#2" to="28675510#7"/>
	<trip id="149351_417_0" type="pkw" depart="681.0" from="-186623965#18" to="-186623965#14"/>
	<trip id="148724_417_0" type="pkw" depart="682.0" from="-186623965#18" to="-186623965#14"/>
	<trip id="140626_414_0" type="pkw" depart="683.0" from="-42925825#2" to="-186623965#14"/>
	<trip id="104424_397_0" type="pkw" depart="684.0" from="-42925825#2" to="-186623965#14"/>
	<trip id="192600_435_0" type="pkw" depart="693.0" from="-186623965#18" to="-186623965#14"/>
	<trip id="190326_434_0" type="pkw" depart="695.0" from="-42925825#2" to="-186623965#14"/>
	<trip id="174197_427_0" type="pkw" depart="697.0" from="-186623965#18" to="-186623965#14"/>
	<trip id="158759_421_0" type="pkw" depart="703.0" from="-186623965#18" to="-186623965#14"/>
	<trip id="153346_420_0" type="pkw" depart="703.0" from="-42925825#2" to="-186623965#14"/>
	<trip id="198690_436_0" type="pkw" depart="705.0" from="186623965#9" to="-23840712#4"/>
	<trip id="148979_417_0" type="pkw" depart="705.0" from="-42925825#2" to="23647126"/>
	<trip id="176182_429_0" type="pkw" depart="705.0" from="-186623965#18" to="-186623965#14"/>
	<trip id="166617_424_0" type="pkw" depart="706.0" from="-186623965#18" to="-186623965#14"/>
	<trip id="157945_421_0" type="pkw" depart="708.0" from="-186623965#18" to="-186623965#14"/>
	<trip id="177566_429_0" type="pkw" depart="711.0" from="-28675493" to="186623965#17"/>
	<trip id="137656_412_0" type="pkw" depart="712.0" from="-42925825#2" to="-186623965#14"/>
	<trip id="157735_421_0" type="pkw" depart="714.0" from="-42925825#2" to="-186623965#14"/>
	<trip id="128696_408_0" type="pkw" depart="716.0" from="-42925825#2" to="-186623965#14"/>
	<trip id="172420_426_0" type="pkw" depart="718.0" from="-186623965#18" to="-186623965#14"/>
	<trip id="174772_427_0" type="pkw" depart="721.0" from="-42925825#2" to="-186623965#14"/>
	<trip id="192937_435_0" type="pkw" depart="721.0" from="28675510#1" to="28675510#7"/>
	<trip id="125034_406_0" type="pkw" depart="722.0" from="-42925825#2" to="-186623965#14"/>
	<trip id="127087_407_0" type="pkw" depart="724.0" from="-297047309#0" to="-28675510#5"/>
	<trip id="181296_431_0" type="pkw" depart="725.0" from="-186623965#18" to="-186623965#14"/>
	<trip id="185159_432_0" type="pkw" depart="725.0" from="-186623965#18" to="-186623965#14"/>
	<trip id="137941_412_0" type="pkw" depart="727.0" from="-297047309#0" to="28675510#7"/>
	<trip id="180819_431_0" type="pkw" depart="727.0" from="-28675510#11" to="8716827#0"/>
	<trip id="187735_433_0" type="pkw" depart="727.0" from="22959552#0" to="28675510#7"/>
	<trip id="187041_432_0" type="pkw" depart="727.0" from="-186623965#18" to="-186623965#14"/>
	<trip id="143357_415_0" type="pkw" depart="728.0" from="-42925825#2" to="-186623965#14"/>
	<trip id="165355_423_0" type="pkw" depart="729.0" from="-297047309#0" to="23283579#1"/>
	<trip id="192299_435_0" type="pkw" depart="729.0" from="22959552#0" to="28675510#7"/>
	<trip id="120258_405_0" type="pkw" depart="730.0" from="-186623965#18" to="-186623965#14"/>
	<trip id="160380_421_0" type="pkw" depart="731.0" from="160807420" to="8716827#0"/>
	<trip id="154070_420_0" type="pkw" depart="735.0" from="-297047309#0" to="186623965#17"/>
	<trip id="136876_411_0" type="pkw" depart="735.0" from="186623965#9" to="186623965#17"/>
	<trip id="179225_430_0" type="pkw" depart="735.0" from="22917421#3" to="-186623965#14"/>
	<trip id="134277_411_0" type="pkw" depart="736.0" from="-42925825#2" to="-186623965#14"/>
	<trip id="178349_430_0" type="pkw" depart="737.0" from="-297047309#0" to="23283579#1"/>
	<trip id="100830_396_0" type="pkw" depart="738.0" from="-42925825#2" to="-186623965#14"/>
	<trip id="114198_402_0" type="pkw" depart="739.0" from="-297047309#0" to="23283579#1"/>
	<trip id="179666_430_0" type="pkw" depart="741.0" from="-42925825#2" to="-186623965#14"/>
	<trip id="186447_432_0" type="pkw" depart="743.0" from="-42925825#2" to="-186623965#14"/>
	<trip id="150226_418_0" type="pkw" depart="743.0" from="186623965#9" to="186623965#17"/>
	<trip id="173515_427_0" type="pkw" depart="744.0" from="-28675510#11" to="23648008#2"/>
	<trip id="175270_428_0" type="pkw" depart="744.0" from="-186623965#18" to="-186623965#14"/>
	<trip id="153423_420_0" type="pkw" depart="746.0" from="-28675510#11" to="28675510#4"/>
	<trip id="195016_436_0" type="pkw" depart="746.0" from="-42925825#2" to="-186623965#14"/>
	<trip id="178725_430_0" type="pkw" depart="746.0" from="-186623965#18" to="-186623965#14"/>
	<trip id="192208_435_0" type="pkw" depart="748.0" from="-42925825#2" to="-186623965#14"/>
	<trip id="179425_430_0" type="pkw" depart="750.0" from="-42925825#2" to="-186623965#14"/>
	<trip id="162220_421_0" type="pkw" depart="751.0" from="186623965#9" to="186623965#17"/>
	<trip id="156298_420_0" type="pkw" depart="752.0" from="-186623965#18" to="-186623965#14"/>
	<trip id="171670_426_0" type="pkw" depart="752.0" from="-42925825#2" to="-186623965#14"/>
	<trip id="146521_416_0" type="pkw" depart="753.0" from="-186623965#18" to="-186623965#14"/>
	<trip id="205047_440_0" type="pkw" depart="753.0" from="23285888#0" to="23283579#1"/>
	<trip id="163932_422_0" type="pkw" depart="754.0" from="186623965#9" to="186623965#17"/>
	<trip id="167674_425_0" type="pkw" depart="754.0" from="-186623965#18" to="-186623965#14"/>
	<trip id="158750_421_0" type="pkw" depart="755.0" from="-186623965#18" to="-186623965#14"/>
	<trip id="125183_406_0" type="pkw" depart="757.0" from="-42925825#2" to="-186623965#14"/>
	<trip id="155996_420_0" type="pkw" depart="760.0" from="-42925825#2" to="-186623965#14"/>
	<trip id="148814_417_0" type="pkw" depart="762.0" from="-23283579#1" to="-23840935"/>
	<trip id="113918_402_0" type="pkw" depart="763.0" from="-42925825#2" to="-186623965#14"/>
	<trip id="204685_440_0" type="pkw" depart="765.0" from="133081987#3" to="23283436"/>
	<trip id="203736_439_0" type="pkw" depart="765.0" from="23283579#1" to="4936412"/>
	<trip id="176462_429_0" type="pkw" depart="766.0" from="-186623965#18" to="-23840935"/>
	<trip id="125466_406_0" type="pkw" depart="771.0" from="-42925825#2" to="323450710#0"/>
	<trip id="159402_421_0" type="pkw" depart="771.0" from="-297047308" to="186623965#17"/>
	<trip id="126182_407_0" type="pkw" depart="772.0" from="-42925825#2" to="-186623965#14"/>
	<trip id="137488_412_0" type="pkw" depart="775.0" from="-28675510#11" to="297047309#0"/>
	<trip id="161162_421_0" type="pkw" depart="776.0" from="-186623965#18" to="-186623965#14"/>
	<trip id="174775_427_0" type="pkw" depart="777.0" from="-42925825#2" to="-186623965#14"/>
	<trip id="193596_435_0" type="pkw" depart="777.0" from="22959550#3" to="-22917421#4"/>
	<trip id="179418_430_0" type="pkw" depart="781.0" from="-186623965#18" to="155600123#0"/>
	<trip id="158999_421_0" type="pkw" depart="781.0" from="-42925825#2" to="-186623965#14"/>
	<trip id="188336_433_0" type="pkw" depart="781.0" from="-186623965#18" to="-186623965#14"/>
	<trip id="181471_431_0" type="pkw" depart="786.0" from="22959550#3" to="28675510#7"/>
	<trip id="205551_440_0" type="pkw" depart="786.0" from="-42925825#2" to="186623965#17"/>
	<trip id="168052_425_0" type="pkw" depart="787.0" from="155723703#0" to="155723703#0"/>
	<trip id="172466_426_0" type="pkw" depart="787.0" from="23686088#0" to="8716827#0"/>
	<trip id="189607_434_0" type="pkw" depart="789.0" from="-42925825#2" to="-186623965#14"/>
	<trip id="192032_435_0" type="pkw" depart="789.0" from="-23840712#0" to="-186623965#14"/>
	<trip id="143548_415_0" type="pkw" depart="789.0" from="-4936412" to="23283436"/>
	<trip id="175946_428_0" type="pkw" depart="790.0" from="28675493" to="186623965#17"/>
	<trip id="180869_431_0" type="pkw" depart="791.0" from="133081987#0" to="23283436"/>
	<trip id="199783_437_0" type="pkw" depart="791.0" from="23840713#2" to="-186623965#14"/>
	<trip id="193086_435_0" type="pkw" depart="791.0" from="-42925825#2" to="-186623965#14"/>
	<trip id="178147_430_0" type="pkw" depart="792.0" from="-186623965#18" to="-186623965#14"/>
	<trip id="87369_391_0" type="pkw" depart="793.0" from="-4936412" to="155723703#0"/>
	<trip id="163246_422_0" type="pkw" depart="793.0" from="22917421#3" to="42925825#0"/>
	<trip id="191179_435_0" type="pkw" depart="793.0" from="-186623965#18" to="-186623965#14"/>
	<trip id="196291_436_0" type="pkw" depart="794.0" from="-297047310#3" to="-186623965#14"/>
	<trip id="164328_422_0" type="pkw" depart="795.0" from="23840712#1" to="28675510#7"/>
	<trip id="158269_421_0" type="pkw" depart="796.0" from="22917421#3" to="-186623965#14"/>
	<trip id="184534_431_0" type="pkw" depart="799.0" from="-186623965#18" to="-186623965#14"/>
	<trip id="137023_412_0" type="pkw" depart="799.0" from="-186623965#18" to="-186623965#14"/>
	<trip id="165311_423_0" type="pkw" depart="799.0" from="22917421#3" to="-186623965#14"/>
	<trip id="156190_420_0" type="pkw" depart="800.0" from="-28675510#11" to="8716827#0"/>
	<trip id="154406_420_0" type="pkw" depart="801.0" from="-42925825#2" to="22959552#0"/>
	<trip id="187710_433_0" type="pkw" depart="801.0" from="22917421#3" to="-186623965#14"/>
	<trip id="147907_416_0" type="pkw" depart="802.0" from="-186623965#18" to="42925825#0"/>
	<trip id="199371_437_0" type="pkw" depart="802.0" from="-28675510#11" to="8716827#0"/>
	<trip id="177444_429_0" type="pkw" depart="803.0" from="23686088#0" to="4936412"/>
	<trip id="155843_420_0" type="pkw" depart="804.0" from="22917421#3" to="186623965#17"/>
	<trip id="133843_411_0" type="pkw" depart="805.0" from="-42925825#2" to="-186623965#14"/>
	<trip id="163874_422_0" type="pkw" depart="806.0" from="22917421#3" to="186623965#17"/>
	<trip id="170546_426_0" type="pkw" depart="808.0" from="22917421#3" to="186623965#17"/>
	<trip id="165364_423_0" type="pkw" depart="808.0" from="-42925825#2" to="-186623965#14"/>
	<trip id="140272_414_0" type="pkw" depart="808.0" from="-186623965#18" to="-186623965#14"/>
	<trip id="146840_416_0" type="pkw" depart="810.0" from="22917421#3" to="23283470#3"/>
	<trip id="165192_423_0" type="pkw" depart="811.0" from="-42925825#2" to="-186623965#14"/>
	<trip id="195149_436_0" type="pkw" depart="812.0" from="22917421#3" to="-186623965#14"/>
	<trip id="190449_434_0" type="pkw" depart="813.0" from="23286180" to="-186623965#14"/>
	<trip id="180479_430_0" type="pkw" depart="813.0" from="-186623965#18" to="-186623965#14"/>
	<trip id="200633_437_0" type="pkw" depart="814.0" from="22917421#3" to="186623965#17"/>
	<trip id="166014_424_0" type="pkw" depart="815.0" from="-42925825#2" to="-186623965#14"/>
	<trip id="176339_429_0" type="pkw" depart="816.0" from="186623965#9" to="186623965#17"/>
	<trip id="167892_425_0" type="pkw" depart="816.0" from="23283469" to="4936412"/>
	<trip id="186011_432_0" type="pkw" depart="817.0" from="-42925825#2" to="-186623965#14"/>
	<trip id="165185_423_0" type="pkw" depart="817.0" from="-28675510#11" to="155723703#0"/>
	<trip id="173415_427_0" type="pkw" depart="818.0" from="-186623965#18" to="42925825#0"/>
	<trip id="197093_436_0" type="pkw" depart="818.0" from="-23840712#0" to="28675510#7"/>
	<trip id="192709_435_0" type="pkw" depart="819.0" from="22917421#3" to="186623965#17"/>
	<trip id="150973_418_0" type="pkw" depart="819.0" from="-42925825#2" to="-186623965#14"/>
	<trip id="179834_430_0" type="pkw" depart="820.0" from="-186623965#18" to="-186623965#14"/>
	<trip id="192262_435_0" type="pkw" depart="820.0" from="-23840712#0" to="-186623965#14"/>
	<trip id="153757_420_0" type="pkw" depart="821.0" from="-42925825#2" to="323450710#0"/>
	<trip id="155384_420_0" type="pkw" depart="821.0" from="-186623965#18" to="-186623965#14"/>
	<trip id="201868_438_0" type="pkw" depart="821.0" from="23840712#1" to="-186623965#14"/>
	<trip id="168324_425_0" type="pkw" depart="822.0" from="-42925825#2" to="-186623965#14"/>
	<trip id="192578_435_0" type="pkw" depart="822.0" from="22917421#3" to="186623965#17"/>
	<trip id="191240_435_0" type="pkw" depart="822.0" from="23283469" to="4936412"/>
	<trip id="173218_427_0" type="pkw" depart="824.0" from="-186623965#18" to="-186623965#14"/>
	<trip id="173712_427_0" type="pkw" depart="826.0" from="23283469" to="28675510#7"/>
	<trip id="189074_434_0" type="pkw" depart="826.0" from="23840712#1" to="-186623965#14"/>
	<trip id="150805_418_0" type="pkw" depart="827.0" from="-42925825#2" to="-28675494#1"/>
	<trip id="116458_404_0" type="pkw" depart="827.0" from="-186623965#18" to="-186623965#14"/>
	<trip id="176390_429_0" type="pkw" depart="828.0" from="-42925825#2" to="186623965#17"/>
	<trip id="202429_438_0" type="pkw" depart="828.0" from="28691861" to="186623965#17"/>
	<trip id="197216_436_0" type="pkw" depart="830.0" from="-42925825#2" to="-186623965#14"/>
	<trip id="183177_431_0" type="pkw" depart="831.0" from="28691861" to="-186623965#14"/>
	<trip id="187404_433_0" type="pkw" depart="832.0" from="-42925825#2" to="186623965#17"/>
	<trip id="123729_406_0" type="pkw" depart="833.0" from="-28675510#11" to="23840935"/>
	<trip id="159029_421_0" type="pkw" depart="834.0" from="-42925825#2" to="-186623965#14"/>
	<trip id="190542_435_0" type="pkw" depart="834.0" from="22917421#3" to="42925825#0"/>
	<trip id="198559_436_0" type="pkw" depart="836.0" from="-23283472#2" to="23283436"/>
	<trip id="174583_427_0" type="pkw" depart="836.0" from="-297047309#0" to="28675510#7"/>
	<trip id="136277_411_0" type="pkw" depart="837.0" from="-28675510#11" to="8716807#1"/>
	<trip id="185164_432_0" type="pkw" depart="837.0" from="22917421#3" to="186623965#17"/>
	<trip id="198907_436_0" type="pkw" depart="838.0" from="186623965#9" to="25166682#0"/>
	<trip id="188017_433_0" type="pkw" depart="841.0" from="-42925825#2" to="-186623965#14"/>
	<trip id="146647_416_0" type="pkw" depart="843.0" from="-25168493" to="25168493"/>
	<trip id="163994_422_0" type="pkw" depart="843.0" from="-28675510#11" to="-186623965#14"/>
	<trip id="203783_439_0" type="pkw" depart="843.0" from="-186623965#18" to="-186623965#14"/>
	<trip id="190717_435_0" type="pkw" depart="845.0" from="-186623965#18" to="-186623965#14"/>
	<trip id="171282_426_0" type="pkw" depart="848.0" from="-42925825#2" to="-186623965#14"/>
	<trip id="149244_417_0" type="pkw" depart="850.0" from="-23283579#1" to="-22917421#4"/>
	<trip id="197340_436_0" type="pkw" depart="851.0" from="-186623965#18" to="-22917421#4"/>
	<trip id="194809_436_0" type="pkw" depart="851.0" from="24675285" to="4936412"/>
	<trip id="134528_411_0" type="pkw" depart="853.0" from="-186623965#18" to="-22917421#4"/>
	<trip id="199632_437_0" type="pkw" depart="854.0" from="-25168493" to="25168493"/>
	<trip id="150480_418_0" type="pkw" depart="854.0" from="-186623965#18" to="-22917421#4"/>
	<trip id="179651_430_0" type="pkw" depart="859.0" from="-42925825#2" to="-186623965#14"/>
	<trip id="154907_420_0" type="pkw" depart="861.0" from="-28675510#11" to="155723703#0"/>
	<trip id="198831_436_0" type="pkw" depart="861.0" from="28691861" to="-22917421#4"/>
	<trip id="137056_412_0" type="pkw" depart="862.0" from="-23283579#1" to="8716827#0"/>
	<trip id="148162_417_0" type="pkw" depart="865.0" from="186623965#9" to="23840971"/>
	<trip id="188035_433_0" type="pkw" depart="866.0" from="-42925825#2" to="-186623965#14"/>
	<trip id="100052_396_0" type="pkw" depart="867.0" from="186623965#9" to="155600123#0"/>
	<trip id="177534_429_0" type="pkw" depart="867.0" from="-28675510#11" to="-186623965#14"/>
	<trip id="186056_432_0" type="pkw" depart="868.0" from="-42925825#2" to="186623965#17"/>
	<trip id="200703_437_0" type="pkw" depart="870.0" from="186623965#9" to="186623965#17"/>
	<trip id="113397_402_0" type="pkw" depart="876.0" from="-42925825#2" to="155600123#0"/>
	<trip id="137291_412_0" type="pkw" depart="876.0" from="22917421#3" to="23283436"/>
	<trip id="203286_439_0" type="pkw" depart="877.0" from="-28675510#11" to="8716827#0"/>
	<trip id="197128_436_0" type="pkw" depart="877.0" from="23285888#0" to="42925825#0"/>
	<trip id="116464_404_0" type="pkw" depart="879.0" from="22917421#3" to="186623965#17"/>
	<trip id="201576_438_0" type="pkw" depart="879.0" from="186623965#9" to="186623965#17"/>
	<trip id="180285_430_0" type="pkw" depart="884.0" from="186623965#9" to="186623965#17"/>
	<trip id="175580_428_0" type="pkw" depart="885.0" from="-42925825#2" to="42925825#0"/>
	<trip id="173453_427_0" type="pkw" depart="888.0" from="22917421#3" to="23840888#0"/>
	<trip id="197203_436_0" type="pkw" depart="890.0" from="-42925825#2" to="-186623965#14"/>
	<trip id="143578_415_0" type="pkw" depart="893.0" from="-23283579#1" to="8716827#0"/>
	<trip id="199091_436_0" type="pkw" depart="893.0" from="-28675510#11" to="-186623965#14"/>
	<trip id="110085_401_0" type="pkw" depart="894.0" from="186623965#9" to="42925825#0"/>
	<trip id="168820_425_0" type="pkw" depart="896.0" from="23840888#1" to="28675510#7"/>
	<trip id="186578_432_0" type="pkw" depart="897.0" from="-186623965#18" to="-22917421#4"/>
	<trip id="178562_430_0" type="pkw" depart="897.0" from="-23648008#1" to="186623965#17"/>
	<trip id="180837_431_0" type="pkw" depart="898.0" from="-28675510#11" to="297047309#0"/>
	<trip id="189334_434_0" type="pkw" depart="898.0" from="28675493" to="186623965#17"/>
	<trip id="202605_439_0" type="pkw" depart="899.0" from="28691861" to="28675510#7"/>
	<trip id="158446_421_0" type="pkw" depart="900.0" from="-186623965#18" to="42925825#0"/>
	<trip id="176160_429_0" type="pkw" depart="900.0" from="-23283579#1" to="-186623965#14"/>
	<trip id="159336_421_0" type="pkw" depart="900.0" from="8716807#1" to="-186623965#14"/>
	<trip id="188077_433_0" type="pkw" depart="901.0" from="-42925825#2" to="186623965#17"/>
	<trip id="90689_391_0" type="pkw" depart="904.0" from="-23283579#1" to="23840972"/>
	<trip id="133094_410_0" type="pkw" depart="904.0" from="-28675510#11" to="-186623965#14"/>
	<trip id="126959_407_0" type="pkw" depart="905.0" from="-42925825#2" to="28675510#4"/>
	<trip id="124177_406_0" type="pkw" depart="906.0" from="-28675510#11" to="-186623965#14"/>
	<trip id="122501_406_0" type="pkw" depart="908.0" from="160807420" to="155723703#0"/>
	<trip id="166723_424_0" type="pkw" depart="908.0" from="-186623965#18" to="42925825#0"/>
	<trip id="163173_422_0" type="pkw" depart="911.0" from="-186623965#18" to="42925825#0"/>
	<trip id="179032_430_0" type="pkw" depart="911.0" from="-42925825#2" to="-186623965#14"/>
	<trip id="173424_427_0" type="pkw" depart="912.0" from="-186623965#18" to="42925825#0"/>
	<trip id="175392_428_0" type="pkw" depart="912.0" from="28675494#0" to="28675510#7"/>
	<trip id="151601_419_0" type="pkw" depart="913.0" from="-28675510#11" to="28675510#7"/>
	<trip id="177389_429_0" type="pkw" depart="914.0" from="22917421#3" to="28675510#7"/>
	<trip id="166947_424_0" type="pkw" depart="914.0" from="-186623965#18" to="42925825#0"/>
	<trip id="189486_434_0" type="pkw" depart="915.0" from="23283472#0" to="155723703#0"/>
	<trip id="182689_431_0" type="pkw" depart="915.0" from="-297047309#0" to="28675510#7"/>
	<trip id="168762_425_0" type="pkw" depart="915.0" from="-28675510#11" to="-186623965#14"/>
	<trip id="176224_429_0" type="pkw" depart="918.0" from="22917421#3" to="186623965#17"/>
	<trip id="210175_441_0" type="pkw" depart="919.0" from="-28675510#11" to="-186623965#14"/>
	<trip id="200971_437_0" type="pkw" depart="920.0" from="22917421#3" to="42925825#0"/>
	<trip id="198190_436_0" type="pkw" depart="921.0" from="133081987#3" to="28675510#7"/>
	<trip id="128929_408_0" type="pkw" depart="921.0" from="-42925825#2" to="-186623965#14"/>
	<trip id="172321_426_0" type="pkw" depart="923.0" from="-186623965#18" to="-186623965#14"/>
	<trip id="174348_427_0" type="pkw" depart="923.0" from="-42925825#2" to="-186623965#14"/>
	<trip id="205491_440_0" type="pkw" depart="923.0" from="22917421#3" to="-186623965#14"/>
	<trip id="192807_435_0" type="pkw" depart="924.0" from="-23283472#2" to="8716827#0"/>
	<trip id="190010_434_0" type="pkw" depart="928.0" from="-186623965#18" to="42925825#0"/>
	<trip id="187991_433_0" type="pkw" depart="934.0" from="-186623965#18" to="42925825#0"/>
	<trip id="194055_435_0" type="pkw" depart="938.0" from="22917421#3" to="186623965#17"/>
	<trip id="188987_434_0" type="pkw" depart="939.0" from="186623965#9" to="186623965#17"/>
	<trip id="194935_436_0" type="pkw" depart="940.0" from="-28675510#11" to="-186623965#14"/>
	<trip id="103317_397_0" type="pkw" depart="942.0" from="-23283579#1" to="23285888#0"/>
	<trip id="197362_436_0" type="pkw" depart="942.0" from="186623965#9" to="-22917421#4"/>
	<trip id="99717_396_0" type="pkw" depart="942.0" from="-42925825#2" to="-186623965#14"/>
	<trip id="188874_434_0" type="pkw" depart="942.0" from="-28675510#11" to="-22917421#4"/>
	<trip id="198058_436_0" type="pkw" depart="943.0" from="-186623965#18" to="-186623965#14"/>
	<trip id="168094_425_0" type="pkw" depart="947.0" from="-42925825#2" to="-28675493"/>
	<trip id="188553_433_0" type="pkw" depart="947.0" from="-186623965#18" to="-186623965#14"/>
	<trip id="145350_416_0" type="pkw" depart="949.0" from="-186623965#18" to="-186623965#14"/>
	<trip id="185809_432_0" type="pkw" depart="949.0" from="22959552#2" to="28675510#7"/>
	<trip id="140081_414_0" type="pkw" depart="950.0" from="-23283579#1" to="23840972"/>
	<trip id="189244_434_0" type="pkw" depart="950.0" from="22917421#3" to="-186623965#14"/>
	<trip id="129083_408_0" type="pkw" depart="950.0" from="-186623965#18" to="-186623965#14"/>
	<trip id="185892_432_0" type="pkw" depart="951.0" from="-186623965#18" to="-186623965#14"/>
	<trip id="161271_421_0" type="pkw" depart="952.0" from="-28675510#11" to="23283436"/>
	<trip id="178100_430_0" type="pkw" depart="953.0" from="23285888#0" to="23283435#1"/>
	<trip id="182599_431_0" type="pkw" depart="953.0" from="-186623965#18" to="-186623965#14"/>
	<trip id="183705_431_0" type="pkw" depart="954.0" from="-28675510#11" to="23840935"/>
	<trip id="170857_426_0" type="pkw" depart="954.0" from="-186623965#18" to="-22917421#4"/>
	<trip id="188099_433_0" type="pkw" depart="955.0" from="-28675510#11" to="28675510#7"/>
	<trip id="142803_415_0" type="pkw" depart="955.0" from="-42925825#2" to="-186623965#14"/>
	<trip id="173318_427_0" type="pkw" depart="956.0" from="22917421#3" to="297047309#0"/>
	<trip id="145530_416_0" type="pkw" depart="956.0" from="-23283579#1" to="8716827#0"/>
	<trip id="194993_436_0" type="pkw" depart="956.0" from="-186623965#18" to="-22917421#4"/>
	<trip id="180743_430_0" type="pkw" depart="957.0" from="186623965#9" to="186623965#17"/>
	<trip id="172838_426_0" type="pkw" depart="958.0" from="-186623965#18" to="-186623965#14"/>
	<trip id="182844_431_0" type="pkw" depart="958.0" from="28675510#4" to="-22917421#4"/>
	<trip id="142046_415_0" type="pkw" depart="959.0" from="-42925825#2" to="-186623965#14"/>
	<trip id="120371_405_0" type="pkw" depart="959.0" from="186623965#9" to="186623965#17"/>
	<trip id="208182_441_0" type="pkw" depart="960.0" from="-42925825#2" to="-186623965#14"/>
	<trip id="155407_420_0" type="pkw" depart="960.0" from="-23283579#1" to="-186623965#14"/>
	<trip id="163289_422_0" type="pkw" depart="961.0" from="22917421#3" to="28675510#7"/>
	<trip id="195816_436_0" type="pkw" depart="962.0" from="-28675510#11" to="23283579#1"/>
	<trip id="164433_422_0" type="pkw" depart="964.0" from="22917421#3" to="297047309#0"/>
	<trip id="140185_414_0" type="pkw" depart="967.0" from="-42925825#2" to="-186623965#14"/>
	<trip id="179216_430_0" type="pkw" depart="973.0" from="23283579#1" to="28675510#7"/>
	<trip id="171489_426_0" type="pkw" depart="973.0" from="-23283579#0" to="-186623965#14"/>
	<trip id="199696_437_0" type="pkw" depart="974.0" from="23283473" to="28675510#7"/>
	<trip id="209625_441_0" type="pkw" depart="974.0" from="23285888#0" to="-186623965#14"/>
	<trip id="144074_416_0" type="pkw" depart="976.0" from="-28675510#11" to="-28675493"/>
	<trip id="137578_412_0" type="pkw" depart="981.0" from="24675285" to="28675510#7"/>
	<trip id="212815_443_0" type="pkw" depart="984.0" from="-23283472#2" to="-186623965#14"/>
	<trip id="124656_406_0" type="pkw" depart="986.0" from="-28675510#11" to="297047309#0"/>
	<trip id="178022_430_0" type="pkw" depart="989.0" from="-42925825#2" to="28675510#7"/>
	<trip id="193946_435_0" type="pkw" depart="990.0" from="8716807#1" to="28675510#7"/>
	<trip id="161253_421_0" type="pkw" depart="990.0" from="-297047309#0" to="-186623965#14"/>
	<trip id="116401_404_0" type="pkw" depart="994.0" from="-28675510#11" to="22959552#0"/>
	<trip id="211421_442_0" type="pkw" depart="999.0" from="-42925825#2" to="-186623965#14"/>
	<trip id="207907_441_0" type="pkw" depart="999.0" from="24675285" to="8716827#0"/>
	<trip id="137375_412_0" type="pkw" depart="1002.0" from="24675285" to="8716807#1"/>
	<trip id="150559_418_0" type="pkw" depart="1002.0" from="-28675510#11" to="8716827#0"/>
	<trip id="129856_409_0" type="pkw" depart="1002.0" from="-42925825#2" to="-186623965#14"/>
	<trip id="160472_421_0" type="pkw" depart="1004.0" from="23840887#3" to="186623965#17"/>
	<trip id="194624_436_0" type="pkw" depart="1006.0" from="23647118" to="-186623965#14"/>
	<trip id="189040_434_0" type="pkw" depart="1010.0" from="23840887#3" to="186623965#17"/>
	<trip id="193865_435_0" type="pkw" depart="1012.0" from="24675285" to="22959552#0"/>
	<trip id="179832_430_0" type="pkw" depart="1012.0" from="-23283579#0" to="4936412"/>
	<trip id="142198_415_0" type="pkw" depart="1016.0" from="-28675510#11" to="23840972"/>
	<trip id="191138_435_0" type="pkw" depart="1016.0" from="23840887#3" to="42925825#0"/>
	<trip id="191420_435_0" type="pkw" depart="1018.0" from="23286179#2" to="23283580#0"/>
	<trip id="183638_431_0" type="pkw" depart="1018.0" from="186623965#9" to="186623965#17"/>
	<trip id="172905_426_0" type="pkw" depart="1020.0" from="-23283579#0" to="28675510#7"/>
	<trip id="139687_413_0" type="pkw" depart="1020.0" from="24675285" to="8716827#0"/>
	<trip id="143625_416_0" type="pkw" depart="1021.0" from="-42925825#2" to="-186623965#14"/>
	<trip id="187679_433_0" type="pkw" depart="1023.0" from="24675285" to="23840972"/>
	<trip id="161678_421_0" type="pkw" depart="1024.0" from="23283470#0" to="-22917421#4"/>
	<trip id="152123_419_0" type="pkw" depart="1024.0" from="-28675510#11" to="28675510#7"/>
	<trip id="195572_436_0" type="pkw" depart="1026.0" from="-42925825#2" to="-186623965#14"/>
	<trip id="121940_406_0" type="pkw" depart="1028.0" from="-28675510#11" to="23686088#1"/>
	<trip id="208171_441_0" type="pkw" depart="1029.0" from="-42925825#2" to="-186623965#14"/>
	<trip id="185052_432_0" type="pkw" depart="1031.0" from="-42925825#2" to="-186623965#14"/>
	<trip id="186652_432_0" type="pkw" depart="1031.0" from="23283470#2" to="28675510#7"/>
	<trip id="160189_421_0" type="pkw" depart="1031.0" from="24675285" to="-186623965#14"/>
	<trip id="209636_441_0" type="pkw" depart="1032.0" from="23286180" to="42925825#0"/>
	<trip id="166138_424_0" type="pkw" depart="1033.0" from="-42925825#2" to="-186623965#14"/>
	<trip id="201746_438_0" type="pkw" depart="1034.0" from="-23840935" to="186623965#17"/>
	<trip id="145084_416_0" type="pkw" depart="1035.0" from="-42925825#2" to="-186623965#14"/>
	<trip id="177315_429_0" type="pkw" depart="1036.0" from="-28675510#11" to="297047309#0"/>
	<trip id="171998_426_0" type="pkw" depart="1037.0" from="-42925825#2" to="-186623965#14"/>
	<trip id="184524_431_0" type="pkw" depart="1038.0" from="-28675510#11" to="-186623965#14"/>
	<trip id="163388_422_0" type="pkw" depart="1039.0" from="-42925825#2" to="-186623965#14"/>
	<trip id="187839_433_0" type="pkw" depart="1040.0" from="-28675510#11" to="-186623965#14"/>
	<trip id="164629_422_0" type="pkw" depart="1040.0" from="-42925825#2" to="-186623965#14"/>
	<trip id="178678_430_0" type="pkw" depart="1042.0" from="-42925825#2" to="-186623965#14"/>
	<trip id="168946_425_0" type="pkw" depart="1043.0" from="-297047309#0" to="42925825#0"/>
	<trip id="156552_420_0" type="pkw" depart="1044.0" from="24675285" to="23840972"/>
	<trip id="203225_439_0" type="pkw" depart="1045.0" from="-28675510#11" to="-186623965#14"/>
	<trip id="192407_435_0" type="pkw" depart="1046.0" from="-23840888#0" to="-186623965#14"/>
	<trip id="214398_444_0" type="pkw" depart="1047.0" from="28675494#0" to="28675510#7"/>
	<trip id="142647_415_0" type="pkw" depart="1047.0" from="-28675510#11" to="-186623965#14"/>
	<trip id="188286_433_0" type="pkw" depart="1047.0" from="186623965#15" to="-22917421#4"/>
	<trip id="160119_421_0" type="pkw" depart="1047.0" from="-42925825#2" to="-186623965#14"/>
	<trip id="201556_438_0" type="pkw" depart="1049.0" from="-28675510#11" to="-186623965#14"/>
	<trip id="115969_403_0" type="pkw" depart="1051.0" from="-42925825#2" to="-186623965#14"/>
	<trip id="156156_420_0" type="pkw" depart="1051.0" from="24675285" to="28675510#7"/>
	<trip id="182252_431_0" type="pkw" depart="1052.0" from="-42925825#2" to="-186623965#14"/>
	<trip id="145597_416_0" type="pkw" depart="1053.0" from="28675510#0" to="-186623965#14"/>
	<trip id="194078_436_0" type="pkw" depart="1053.0" from="160807420" to="155723703#0"/>
	<trip id="189160_434_0" type="pkw" depart="1054.0" from="-23648008#3" to="42925825#0"/>
	<trip id="186596_432_0" type="pkw" depart="1054.0" from="-28675510#11" to="-186623965#14"/>
	<trip id="144974_416_0" type="pkw" depart="1055.0" from="186623965#9" to="42925825#0"/>
	<trip id="213746_444_0" type="pkw" depart="1055.0" from="23840887#2" to="-186623965#14"/>
	<trip id="208208_441_0" type="pkw" depart="1055.0" from="23283580#0" to="-186623965#14"/>
	<trip id="201329_438_0" type="pkw" depart="1056.0" from="-28675510#11" to="-186623965#14"/>
	<trip id="179364_430_0" type="pkw" depart="1056.0" from="-42925825#2" to="22959552#1"/>
	<trip id="170040_426_0" type="pkw" depart="1058.0" from="160807420" to="155723703#0"/>
	<trip id="198900_436_0" type="pkw" depart="1059.0" from="22917421#3" to="186623965#17"/>
	<trip id="117684_404_0" type="pkw" depart="1061.0" from="24675285" to="28675510#7"/>
	<trip id="151702_419_0" type="pkw" depart="1061.0" from="-42925825#2" to="-186623965#14"/>
	<trip id="209398_441_0" type="pkw" depart="1062.0" from="160807420" to="8716827#0"/>
	<trip id="185760_432_0" type="pkw" depart="1063.0" from="133081987#3" to="8716827#0"/>
	<trip id="197843_436_0" type="pkw" depart="1067.0" from="23840887#3" to="-186623965#14"/>
	<trip id="146136_416_0" type="pkw" depart="1068.0" from="-42925825#2" to="-186623965#14"/>
	<trip id="167488_425_0" type="pkw" depart="1068.0" from="24675285" to="28675510#7"/>
	<trip id="142129_415_0" type="pkw" depart="1069.0" from="-42925825#2" to="-186623965#14"/>
	<trip id="213507_444_0" type="pkw" depart="1070.0" from="-23840888#0" to="23840712#0"/>
	<trip id="176380_429_0" type="pkw" depart="1070.0" from="160807420" to="-24610382"/>
	<trip id="184302_431_0" type="pkw" depart="1070.0" from="-28675510#11" to="23285888#0"/>
	<trip id="172312_426_0" type="pkw" depart="1072.0" from="160807420" to="8716827#0"/>
	<trip id="206704_440_0" type="pkw" depart="1072.0" from="22959550#0" to="-186623965#14"/>
	<trip id="203599_439_0" type="pkw" depart="1073.0" from="8716807#1" to="155723703#0"/>
	<trip id="115572_403_0" type="pkw" depart="1075.0" from="24675285" to="23840971"/>
	<trip id="187749_433_0" type="pkw" depart="1075.0" from="-42925825#2" to="-186623965#14"/>
	<trip id="146899_416_0" type="pkw" depart="1077.0" from="160807420" to="8716827#0"/>
	<trip id="164321_422_0" type="pkw" depart="1078.0" from="-28675510#11" to="23840887#3"/>
	<trip id="193037_435_0" type="pkw" depart="1078.0" from="-42925825#2" to="-186623965#14"/>
	<trip id="202520_438_0" type="pkw" depart="1079.0" from="160807420" to="23283436"/>
	<trip id="144792_416_0" type="pkw" depart="1081.0" from="-28675510#11" to="-186623965#14"/>
	<trip id="160561_421_0" type="pkw" depart="1083.0" from="160807420" to="8716827#0"/>
	<trip id="188494_433_0" type="pkw" depart="1083.0" from="23283469" to="8716827#0"/>
	<trip id="172884_426_0" type="pkw" depart="1083.0" from="-28675510#11" to="-186623965#14"/>
	<trip id="204872_440_0" type="pkw" depart="1084.0" from="23840887#3" to="-186623965#14"/>
	<trip id="198714_436_0" type="pkw" depart="1085.0" from="22917421#3" to="186623965#17"/>
	<trip id="156365_420_0" type="pkw" depart="1085.0" from="28675510#0" to="-186623965#14"/>
	<trip id="178875_430_0" type="pkw" depart="1086.0" from="186623965#9" to="186623965#17"/>
	<trip id="189522_434_0" type="pkw" depart="1086.0" from="160807420" to="23283436"/>
	<trip id="181926_431_0" type="pkw" depart="1086.0" from="-28675510#11" to="-186623965#14"/>
	<trip id="202709_439_0" type="pkw" depart="1087.0" from="60909001" to="28675510#7"/>
	<trip id="152298_419_0" type="pkw" depart="1089.0" from="28675510#0" to="-186623965#14"/>
	<trip id="169726_426_0" type="pkw" depart="1089.0" from="-42925825#2" to="-186623965#14"/>
	<trip id="201722_438_0" type="pkw" depart="1090.0" from="8716807#1" to="-186623965#14"/>
	<trip id="141721_415_0" type="pkw" depart="1091.0" from="-42925825#2" to="-186623965#14"/>
	<trip id="183250_431_0" type="pkw" depart="1091.0" from="160807420" to="23283436"/>
	<trip id="170771_426_0" type="pkw" depart="1093.0" from="160807420" to="4936412"/>
	<trip id="200894_437_0" type="pkw" depart="1093.0" from="8716807#1" to="28675510#7"/>
	<trip id="182916_431_0" type="pkw" depart="1094.0" from="60909001" to="23286179#2"/>
	<trip id="210215_441_0" type="pkw" depart="1098.0" from="-42925825#2" to="-186623965#14"/>
	<trip id="216108_445_0" type="pkw" depart="1098.0" from="8716807#1" to="155723703#0"/>
	<trip id="174035_427_0" type="pkw" depart="1099.0" from="24675285" to="28675510#7"/>
	<trip id="198487_436_0" type="pkw" depart="1099.0" from="-23648008#3" to="-186623965#14"/>
	<trip id="173530_427_0" type="pkw" depart="1100.0" from="-42925825#2" to="-186623965#14"/>
	<trip id="180688_430_0" type="pkw" depart="1105.0" from="-8716807#4" to="28675510#7"/>
	<trip id="195919_436_0" type="pkw" depart="1105.0" from="-42925825#2" to="-186623965#14"/>
	<trip id="173638_427_0" type="pkw" depart="1109.0" from="-42925825#2" to="-186623965#14"/>
	<trip id="142630_415_0" type="pkw" depart="1110.0" from="-42925825#2" to="-186623965#14"/>
	<trip id="179566_430_0" type="pkw" depart="1113.0" from="22917421#3" to="28675510#0"/>
	<trip id="185236_432_0" type="pkw" depart="1113.0" from="8716807#5" to="42925825#0"/>
	<trip id="158191_421_0" type="pkw" depart="1116.0" from="132042183" to="4936412"/>
	<trip id="188709_434_0" type="pkw" depart="1120.0" from="-42925825#2" to="-186623965#14"/>
	<trip id="98732_395_0" type="pkw" depart="1127.0" from="-4936412" to="155723703#0"/>
	<trip id="197218_436_0" type="pkw" depart="1128.0" from="23840887#3" to="-186623965#14"/>
	<trip id="166451_424_0" type="pkw" depart="1131.0" from="-28675510#11" to="-186623965#14"/>
	<trip id="211975_442_0" type="pkw" depart="1132.0" from="-42925825#2" to="22959552#0"/>
	<trip id="198185_436_0" type="pkw" depart="1135.0" from="-42925825#2" to="-186623965#14"/>
	<trip id="154478_420_0" type="pkw" depart="1139.0" from="-42925825#2" to="-186623965#14"/>
	<trip id="186091_432_0" type="pkw" depart="1141.0" from="-28675510#11" to="8716807#1"/>
	<trip id="186825_432_0" type="pkw" depart="1141.0" from="-42925825#2" to="-186623965#14"/>
	<trip id="199751_437_0" type="pkw" depart="1142.0" from="23840713#2" to="42925825#0"/>
	<trip id="210315_441_0" type="pkw" depart="1147.0" from="186623965#9" to="186623965#17"/>
	<trip id="187238_433_0" type="pkw" depart="1148.0" from="-42925825#2" to="-186623965#14"/>
	<trip id="95122_394_0" type="pkw" depart="1150.0" from="186623965#9" to="42925825#0"/>
	<trip id="151011_418_0" type="pkw" depart="1153.0" from="-42925825#2" to="-186623965#14"/>
	<trip id="174423_427_0" type="pkw" depart="1154.0" from="23283470#0" to="28675510#7"/>
	<trip id="197594_436_0" type="pkw" depart="1155.0" from="-323450710#0" to="42925825#0"/>
	<trip id="152798_419_0" type="pkw" depart="1155.0" from="-4936412" to="8716827#0"/>
	<trip id="207921_441_0" type="pkw" depart="1155.0" from="-42925825#2" to="-186623965#14"/>
	<trip id="193359_435_0" type="pkw" depart="1156.0" from="23283579#1" to="-186623965#14"/>
	<trip id="130077_409_0" type="pkw" depart="1157.0" from="-42925825#2" to="-186623965#14"/>
	<trip id="175636_428_0" type="pkw" depart="1158.0" from="23283470#0" to="28675510#7"/>
	<trip id="202766_439_0" type="pkw" depart="1164.0" from="22917421#3" to="-22917421#4"/>
	<trip id="186357_432_0" type="pkw" depart="1169.0" from="8716807#1" to="42925825#0"/>
	<trip id="145955_416_0" type="pkw" depart="1169.0" from="186623965#9" to="28675510#7"/>
	<trip id="158048_421_0" type="pkw" depart="1171.0" from="186623965#9" to="-186623965#16"/>
	<trip id="200763_437_0" type="pkw" depart="1171.0" from="-23283579#0" to="-22917421#4"/>
	<trip id="177723_430_0" type="pkw" depart="1173.0" from="132042183" to="28675510#7"/>
	<trip id="153716_420_0" type="pkw" depart="1175.0" from="-42925825#2" to="-186623965#14"/>
	<trip id="180925_431_0" type="pkw" depart="1175.0" from="23283470#0" to="-186623965#14"/>
	<trip id="204687_440_0" type="pkw" depart="1176.0" from="22917421#3" to="186623965#17"/>
	<trip id="213578_444_0" type="pkw" depart="1177.0" from="-8716807#4" to="42925825#0"/>
	<trip id="191837_435_0" type="pkw" depart="1177.0" from="60909001" to="23283579#1"/>
	<trip id="202003_438_0" type="pkw" depart="1177.0" from="23283470#0" to="-186623965#14"/>
	<trip id="184047_431_0" type="pkw" depart="1181.0" from="-42925825#2" to="-186623965#14"/>
	<trip id="189508_434_0" type="pkw" depart="1181.0" from="23283470#0" to="42925825#0"/>
	<trip id="142718_415_0" type="pkw" depart="1183.0" from="-42925825#2" to="42925825#0"/>
	<trip id="204552_440_0" type="pkw" depart="1183.0" from="8716807#1" to="28675510#7"/>
	<trip id="175651_428_0" type="pkw" depart="1183.0" from="23283470#0" to="42925825#0"/>
	<trip id="199306_437_0" type="pkw" depart="1184.0" from="24675285" to="186623965#17"/>
	<trip id="152610_419_0" type="pkw" depart="1185.0" from="-42925825#2" to="42925825#0"/>
	<trip id="108107_400_0" type="pkw" depart="1187.0" from="-23283579#1" to="-186623965#14"/>
	<trip id="184036_431_0" type="pkw" depart="1189.0" from="23283470#0" to="28675510#7"/>
	<trip id="160997_421_0" type="pkw" depart="1191.0" from="24675285" to="-186623965#14"/>
	<trip id="156830_421_0" type="pkw" depart="1191.0" from="-42925825#2" to="-186623965#14"/>
	<trip id="218742_446_0" type="pkw" depart="1192.0" from="23840887#2" to="-186623965#14"/>
	<trip id="208148_441_0" type="pkw" depart="1193.0" from="133081987#0" to="155723703#0"/>
	<trip id="170529_426_0" type="pkw" depart="1194.0" from="-42925825#2" to="42925825#0"/>
	<trip id="208394_441_0" type="pkw" depart="1195.0" from="23283470#0" to="42925825#0"/>
	<trip id="155045_420_0" type="pkw" depart="1196.0" from="186623965#9" to="186623965#17"/>
	<trip id="156421_420_0" type="pkw" depart="1198.0" from="-23283579#1" to="8716827#0"/>
	<trip id="208495_441_0" type="pkw" depart="1198.0" from="8716807#1" to="42925825#0"/>
	<trip id="146616_416_0" type="pkw" depart="1199.0" from="186623965#9" to="186623965#17"/>
	<trip id="149525_417_0" type="pkw" depart="1199.0" from="22917421#3" to="28691861"/>
	<trip id="143728_416_0" type="pkw" depart="1202.0" from="-42925825#2" to="42925825#0"/>
	<trip id="134954_411_0" type="pkw" depart="1202.0" from="-323450710#0" to="28675510#7"/>
	<trip id="204207_439_0" type="pkw" depart="1203.0" from="-42925825#2" to="42925825#0"/>
	<trip id="183772_431_0" type="pkw" depart="1204.0" from="186623965#9" to="42925825#0"/>
	<trip id="161960_421_0" type="pkw" depart="1204.0" from="-323450710#0" to="28675510#7"/>
	<trip id="199814_437_0" type="pkw" depart="1207.0" from="-42925825#2" to="42925825#0"/>
	<trip id="78254_386_0" type="pkw" depart="1207.0" from="-323450710#0" to="186623965#17"/>
	<trip id="143765_416_0" type="pkw" depart="1209.0" from="-42925825#2" to="42925825#0"/>
	<trip id="135004_411_0" type="pkw" depart="1209.0" from="-23283579#1" to="-186623965#14"/>
	<trip id="178219_430_0" type="pkw" depart="1211.0" from="-23283579#1" to="8716807#1"/>
	<trip id="180389_430_0" type="pkw" depart="1211.0" from="-42925825#2" to="8716827#0"/>
	<trip id="186016_432_0" type="pkw" depart="1213.0" from="-23283579#1" to="297047309#0"/>
	<trip id="109352_401_0" type="pkw" depart="1215.0" from="-23283579#1" to="297047309#0"/>
	<trip id="158660_421_0" type="pkw" depart="1215.0" from="-42925825#2" to="42925825#0"/>
	<trip id="133589_410_0" type="pkw" depart="1216.0" from="-42925825#2" to="42925825#0"/>
	<trip id="208396_441_0" type="pkw" depart="1218.0" from="23283470#0" to="28675510#7"/>
	<trip id="178830_430_0" type="pkw" depart="1221.0" from="-42925825#2" to="42925825#0"/>
	<trip id="211320_442_0" type="pkw" depart="1222.0" from="-42925825#2" to="297047309#0"/>
	<trip id="146487_416_0" type="pkw" depart="1222.0" from="-28675510#11" to="297047309#0"/>
	<trip id="208898_441_0" type="pkw" depart="1224.0" from="23283470#0" to="42925825#0"/>
	<trip id="159819_421_0" type="pkw" depart="1224.0" from="-28675510#11" to="323450710#0"/>
	<trip id="218307_446_0" type="pkw" depart="1226.0" from="23283470#0" to="-186623965#14"/>
	<trip id="198093_436_0" type="pkw" depart="1226.0" from="23840712#1" to="28675510#7"/>
	<trip id="185272_432_0" type="pkw" depart="1227.0" from="-42925825#2" to="42925825#0"/>
	<trip id="218949_446_0" type="pkw" depart="1229.0" from="-42925825#2" to="42925825#0"/>
	<trip id="189835_434_0" type="pkw" depart="1229.0" from="23283470#0" to="186623965#17"/>
	<trip id="118740_405_0" type="pkw" depart="1230.0" from="-42925825#2" to="42925825#0"/>
	<trip id="196646_436_0" type="pkw" depart="1233.0" from="22917421#3" to="28675494#0"/>
	<trip id="153833_420_0" type="pkw" depart="1233.0" from="-323450710#0" to="28675510#7"/>
	<trip id="203740_439_0" type="pkw" depart="1234.0" from="23647118" to="-186623965#14"/>
	<trip id="204532_440_0" type="pkw" depart="1237.0" from="22917421#3" to="186623965#17"/>
	<trip id="155948_420_0" type="pkw" depart="1237.0" from="-42925825#2" to="42925825#0"/>
	<trip id="140824_414_0" type="pkw" depart="1241.0" from="-42925825#2" to="42925825#0"/>
	<trip id="185537_432_0" type="pkw" depart="1241.0" from="-28675510#0" to="155723703#0"/>
	<trip id="188650_434_0" type="pkw" depart="1244.0" from="8716807#1" to="28675510#7"/>
	<trip id="182033_431_0" type="pkw" depart="1246.0" from="-28675510#11" to="-186623965#14"/>
	<trip id="136536_411_0" type="pkw" depart="1247.0" from="-42925825#2" to="-186623965#14"/>
	<trip id="142523_415_0" type="pkw" depart="1249.0" from="-42925825#2" to="-186623965#14"/>
	<trip id="158779_421_0" type="pkw" depart="1250.0" from="-28675510#11" to="297047309#0"/>
	<trip id="192089_435_0" type="pkw" depart="1257.0" from="-42925825#2" to="42925825#0"/>
	<trip id="167558_425_0" type="pkw" depart="1259.0" from="-23283579#1" to="-186623965#14"/>
	<trip id="170734_426_0" type="pkw" depart="1263.0" from="-23283579#1" to="23648008#2"/>
	<trip id="195351_436_0" type="pkw" depart="1264.0" from="8716807#1" to="42925825#0"/>
	<trip id="140856_414_0" type="pkw" depart="1269.0" from="22917421#3" to="186623965#17"/>
	<trip id="199826_437_0" type="pkw" depart="1269.0" from="24675285" to="-186623965#14"/>
	<trip id="216025_445_0" type="pkw" depart="1269.0" from="22959552#1" to="297047309#0"/>
	<trip id="214037_444_0" type="pkw" depart="1273.0" from="133081987#0" to="28675510#7"/>
	<trip id="114485_402_0" type="pkw" depart="1274.0" from="-28675510#11" to="-297047307"/>
	<trip id="167207_425_0" type="pkw" depart="1276.0" from="-42925825#2" to="8716807#1"/>
	<trip id="221772_448_0" type="pkw" depart="1278.0" from="23283469" to="28675510#7"/>
	<trip id="176577_429_0" type="pkw" depart="1278.0" from="-42925825#2" to="-186623965#14"/>
	<trip id="135408_411_0" type="pkw" depart="1278.0" from="-28675510#11" to="42925825#0"/>
	<trip id="172867_426_0" type="pkw" depart="1280.0" from="24675285" to="28675510#7"/>
	<trip id="196101_436_0" type="pkw" depart="1281.0" from="23285888#0" to="28675510#7"/>
	<trip id="123449_406_0" type="pkw" depart="1282.0" from="-28675510#11" to="186623965#17"/>
	<trip id="123645_406_0" type="pkw" depart="1287.0" from="-23283579#1" to="-186623965#14"/>
	<trip id="207932_441_0" type="pkw" depart="1299.0" from="28675510#1" to="42925825#0"/>
	<trip id="150777_418_0" type="pkw" depart="1301.0" from="-323450710#0" to="28675510#7"/>
	<trip id="190934_435_0" type="pkw" depart="1305.0" from="23840712#1" to="-186623965#14"/>
	<trip id="220883_447_0" type="pkw" depart="1311.0" from="22917421#3" to="186623965#17"/>
	<trip id="194487_436_0" type="pkw" depart="1313.0" from="133081987#3" to="297047309#0"/>
	<trip id="182377_431_0" type="pkw" depart="1314.0" from="-23283579#1" to="22959552#0"/>
	<trip id="220061_447_0" type="pkw" depart="1316.0" from="22917421#3" to="8716807#1"/>
	<trip id="194588_436_0" type="pkw" depart="1318.0" from="22917421#3" to="186623965#17"/>
	<trip id="151196_418_0" type="pkw" depart="1318.0" from="-23283579#1" to="297047309#0"/>
	<trip id="213758_444_0" type="pkw" depart="1319.0" from="8716807#1" to="28675510#7"/>
	<trip id="183852_431_0" type="pkw" depart="1320.0" from="-23283579#1" to="323450710#0"/>
	<trip id="91841_392_0" type="pkw" depart="1322.0" from="-23283579#1" to="155723703#0"/>
	<trip id="193296_435_0" type="pkw" depart="1323.0" from="22959552#2" to="186623965#17"/>
	<trip id="122181_406_0" type="pkw" depart="1324.0" from="-23283579#1" to="8716827#0"/>
[...]
	<trip id="170992_426_0" type="pkw" depart="3114.0" from="-323450710#0" to="-186623965#14"/>
	<trip id="160694_421_0" type="pkw" depart="3116.0" from="160807420" to="8716827#0"/>
	<trip id="252018_457_0" type="pkw" depart="3117.0" from="-23283579#1" to="28675510#7"/>
	<trip id="122246_406_0" type="pkw" depart="3119.0" from="186623965#9" to="42925825#0"/>
	<trip id="159855_421_0" type="pkw" depart="3119.0" from="160807420" to="8716827#0"/>
	<trip id="272170_466_0" type="pkw" depart="3119.0" from="-23283579#1" to="323450710#0"/>
	<trip id="274107_467_0" type="pkw" depart="3121.0" from="22959550#0" to="8716827#0"/>
	<trip id="269461_465_0" type="pkw" depart="3126.0" from="23286180" to="23286179#2"/>
	<trip id="275023_467_0" type="pkw" depart="3129.0" from="23840971" to="28675510#7"/>
	<trip id="282110_471_0" type="pkw" depart="3132.0" from="-28675510#0" to="28675510#7"/>
	<trip id="170225_426_0" type="pkw" depart="3138.0" from="-42925825#2" to="-186623965#14"/>
	<trip id="188008_433_0" type="pkw" depart="3140.0" from="-323450710#0" to="-186623965#14"/>
	<trip id="234449_451_0" type="pkw" depart="3141.0" from="-42925825#2" to="-186623965#14"/>
	<trip id="113580_402_0" type="pkw" depart="3141.0" from="-4936412" to="8716827#0"/>
	<trip id="279198_470_0" type="pkw" depart="3142.0" from="-23648008#3" to="-186623965#14"/>
	<trip id="277054_469_0" type="pkw" depart="3143.0" from="-42925825#2" to="-186623965#14"/>
	<trip id="186271_432_0" type="pkw" depart="3145.0" from="-42925825#2" to="-186623965#14"/>
	<trip id="228979_450_0" type="pkw" depart="3145.0" from="-323450710#0" to="-186623965#14"/>
	<trip id="238045_451_0" type="pkw" depart="3147.0" from="-42925825#2" to="-186623965#14"/>
	<trip id="238313_451_0" type="pkw" depart="3152.0" from="-42925825#2" to="-186623965#14"/>
	<trip id="209629_441_0" type="pkw" depart="3153.0" from="-42925825#2" to="-186623965#14"/>
	<trip id="162454_421_0" type="pkw" depart="3155.0" from="-4936412" to="8716827#0"/>
	<trip id="210890_442_0" type="pkw" depart="3155.0" from="-42925825#2" to="-186623965#14"/>
	<trip id="283192_472_0" type="pkw" depart="3156.0" from="23283580#0" to="23286179#2"/>
	<trip id="176772_429_0" type="pkw" depart="3157.0" from="-42925825#2" to="-186623965#14"/>
	<trip id="113583_402_0" type="pkw" depart="3158.0" from="-4936412" to="23840712#0"/>
	<trip id="278923_470_0" type="pkw" depart="3158.0" from="-23648008#3" to="-186623965#14"/>
	<trip id="179801_430_0" type="pkw" depart="3160.0" from="-42925825#2" to="42925825#0"/>
	<trip id="290892_478_0" type="pkw" depart="3160.0" from="-297047310#3" to="28675510#7"/>
	<trip id="266794_464_0" type="pkw" depart="3161.0" from="23283473" to="22959552#0"/>
	<trip id="190020_434_0" type="pkw" depart="3162.0" from="-42925825#2" to="23283579#1"/>
	<trip id="221906_448_0" type="pkw" depart="3163.0" from="-42925825#2" to="-186623965#14"/>
	<trip id="259803_461_0" type="pkw" depart="3165.0" from="23283470#0" to="28675510#7"/>
	<trip id="231094_450_0" type="pkw" depart="3166.0" from="-42925825#2" to="-186623965#14"/>
	<trip id="272103_466_0" type="pkw" depart="3169.0" from="23283469" to="23283436"/>
	<trip id="285725_474_0" type="pkw" depart="3171.0" from="-23840888#0" to="-186623965#14"/>
	<trip id="241007_452_0" type="pkw" depart="3171.0" from="-42925825#2" to="-186623965#14"/>
	<trip id="211367_442_0" type="pkw" depart="3172.0" from="-42925825#2" to="-186623965#14"/>
	<trip id="236365_451_0" type="pkw" depart="3173.0" from="23686088#1" to="23283436"/>
	<trip id="243032_452_0" type="pkw" depart="3173.0" from="-323450710#0" to="323416262"/>
	<trip id="237466_451_0" type="pkw" depart="3176.0" from="-42925825#2" to="-186623965#14"/>
	<trip id="214875_445_0" type="pkw" depart="3177.0" from="-42925825#2" to="-186623965#14"/>
	<trip id="241789_452_0" type="pkw" depart="3178.0" from="-186623965#18" to="-186623965#14"/>
	<trip id="240210_452_0" type="pkw" depart="3179.0" from="-42925825#2" to="-186623965#14"/>
	<trip id="226565_450_0" type="pkw" depart="3179.0" from="-186623965#18" to="-186623965#14"/>
	<trip id="281500_471_0" type="pkw" depart="3179.0" from="-323450710#0" to="-186623965#14"/>
	<trip id="229837_450_0" type="pkw" depart="3181.0" from="-42925825#2" to="-186623965#14"/>
	<trip id="237972_451_0" type="pkw" depart="3183.0" from="-42925825#2" to="-186623965#14"/>
	<trip id="270478_465_0" type="pkw" depart="3183.0" from="-186623965#18" to="186623965#17"/>
	<trip id="169008_425_0" type="pkw" depart="3184.0" from="-42925825#2" to="42925825#0"/>
	<trip id="152085_419_0" type="pkw" depart="3188.0" from="-42925825#2" to="42925825#0"/>
	<trip id="175299_428_0" type="pkw" depart="3190.0" from="-42925825#2" to="-186623965#14"/>
	<trip id="211484_442_0" type="pkw" depart="3191.0" from="-42925825#2" to="297047309#0"/>
	<trip id="148789_417_0" type="pkw" depart="3195.0" from="-42925825#2" to="42925825#0"/>
	<trip id="185416_432_0" type="pkw" depart="3197.0" from="-42925825#2" to="28675510#0"/>
	<trip id="272855_466_0" type="pkw" depart="3197.0" from="-23840712#0" to="28675510#7"/>
	<trip id="187393_433_0" type="pkw" depart="3200.0" from="-42925825#2" to="-186623965#14"/>
	<trip id="286536_475_0" type="pkw" depart="3204.0" from="23840712#1" to="28675510#7"/>
	<trip id="288539_476_0" type="pkw" depart="3204.0" from="-23648008#3" to="323416262"/>
	<trip id="253315_458_0" type="pkw" depart="3205.0" from="-42925825#2" to="-186623965#14"/>
	<trip id="153961_420_0" type="pkw" depart="3216.0" from="186623965#9" to="23283470#2"/>
	<trip id="278052_469_0" type="pkw" depart="3216.0" from="-23840712#0" to="-186623965#14"/>
	<trip id="246372_454_0" type="pkw" depart="3217.0" from="-42925825#2" to="28675510#7"/>
	<trip id="207957_441_0" type="pkw" depart="3219.0" from="160807420" to="23840972"/>
	<trip id="229576_450_0" type="pkw" depart="3221.0" from="-42925825#2" to="42925825#0"/>
	<trip id="231907_451_0" type="pkw" depart="3223.0" from="-42925825#2" to="-186623965#14"/>
	<trip id="174752_427_0" type="pkw" depart="3229.0" from="-42925825#2" to="-186623965#14"/>
	<trip id="122864_406_0" type="pkw" depart="3230.0" from="-323450710#0" to="-28675493"/>
	<trip id="268146_465_0" type="pkw" depart="3230.0" from="186623965#9" to="28675510#7"/>
	<trip id="232296_451_0" type="pkw" depart="3235.0" from="186623965#9" to="186623965#17"/>
	<trip id="150888_418_0" type="pkw" depart="3236.0" from="-42925825#2" to="-186623965#14"/>
	<trip id="185762_432_0" type="pkw" depart="3237.0" from="-42925825#2" to="-186623965#14"/>
	<trip id="195461_436_0" type="pkw" depart="3242.0" from="-42925825#2" to="-186623965#14"/>
	<trip id="191111_435_0" type="pkw" depart="3244.0" from="-23283579#1" to="23840972"/>
	<trip id="152424_419_0" type="pkw" depart="3244.0" from="-42925825#2" to="-186623965#14"/>
	<trip id="259632_461_0" type="pkw" depart="3246.0" from="-42925825#2" to="-186623965#14"/>
	<trip id="289736_477_0" type="pkw" depart="3246.0" from="23283579#1" to="23283579#1"/>
	<trip id="130069_409_0" type="pkw" depart="3248.0" from="-42925825#2" to="42925825#0"/>
	<trip id="252438_458_0" type="pkw" depart="3248.0" from="-23283579#1" to="-186623965#14"/>
	<trip id="222060_448_0" type="pkw" depart="3250.0" from="-42925825#2" to="42925825#0"/>
	<trip id="235972_451_0" type="pkw" depart="3251.0" from="186623965#9" to="28675510#7"/>
	<trip id="149127_417_0" type="pkw" depart="3252.0" from="-186623965#18" to="23840935"/>
	<trip id="169931_426_0" type="pkw" depart="3254.0" from="-23283579#1" to="8716827#0"/>
	<trip id="280572_471_0" type="pkw" depart="3255.0" from="-186623965#18" to="42925825#0"/>
	<trip id="128588_408_0" type="pkw" depart="3258.0" from="-23283579#1" to="-186623965#14"/>
	<trip id="293245_480_0" type="pkw" depart="3260.0" from="23283579#1" to="23283579#1"/>
	<trip id="261575_461_0" type="pkw" depart="3261.0" from="-42925825#2" to="-186623965#14"/>
	<trip id="261315_461_0" type="pkw" depart="3265.0" from="-42925825#2" to="186623965#17"/>
	<trip id="264725_463_0" type="pkw" depart="3266.0" from="-23283579#1" to="186623965#17"/>
	<trip id="244484_453_0" type="pkw" depart="3268.0" from="-23283579#1" to="8716827#0"/>
	<trip id="125515_406_0" type="pkw" depart="3268.0" from="-42925825#2" to="-186623965#14"/>
	<trip id="284242_473_0" type="pkw" depart="3268.0" from="23840712#0" to="23283579#1"/>
	<trip id="268960_465_0" type="pkw" depart="3270.0" from="-23283579#1" to="-186623965#14"/>
	<trip id="224783_449_0" type="pkw" depart="3271.0" from="-42925825#2" to="186623965#17"/>
	<trip id="277861_469_0" type="pkw" depart="3272.0" from="-23283579#1" to="-186623965#14"/>
	<trip id="244584_453_0" type="pkw" depart="3273.0" from="186623965#9" to="186623965#17"/>
	<trip id="253736_458_0" type="pkw" depart="3274.0" from="-23283579#1" to="28675510#7"/>
	<trip id="231835_451_0" type="pkw" depart="3278.0" from="186623965#9" to="186623965#17"/>
	<trip id="176374_429_0" type="pkw" depart="3281.0" from="-42925825#2" to="42925825#0"/>
	<trip id="286727_475_0" type="pkw" depart="3284.0" from="-28675493" to="-186623965#14"/>
	<trip id="201825_438_0" type="pkw" depart="3285.0" from="-42925825#2" to="186623965#17"/>
	<trip id="281095_471_0" type="pkw" depart="3286.0" from="-28675493" to="-186623965#14"/>
	<trip id="276230_468_0" type="pkw" depart="3287.0" from="23840712#4" to="23283579#1"/>
	<trip id="251525_457_0" type="pkw" depart="3288.0" from="-23283579#1" to="-186623965#14"/>
	<trip id="276122_468_0" type="pkw" depart="3289.0" from="-28675510#11" to="-186623965#14"/>
	<trip id="125020_406_0" type="pkw" depart="3292.0" from="-23283579#1" to="23283579#1"/>
	<trip id="142479_415_0" type="pkw" depart="3296.0" from="-23283579#1" to="186623965#17"/>
	<trip id="207533_441_0" type="pkw" depart="3298.0" from="-42925825#2" to="-8716807#4"/>
	<trip id="298295_482_0" type="pkw" depart="3299.0" from="23286180" to="23286179#2"/>
	<trip id="287331_475_0" type="pkw" depart="3303.0" from="23840887#3" to="-186623965#14"/>
	<trip id="194915_436_0" type="pkw" depart="3304.0" from="-28675510#11" to="22959550#4"/>
	<trip id="279022_470_0" type="pkw" depart="3306.0" from="23283470#3" to="23283579#1"/>
	<trip id="170316_426_0" type="pkw" depart="3308.0" from="-28675510#11" to="-186623965#14"/>
	<trip id="271739_466_0" type="pkw" depart="3311.0" from="-186623965#16" to="-186623965#14"/>
	<trip id="242560_452_0" type="pkw" depart="3315.0" from="186623965#9" to="42925825#0"/>
	<trip id="146466_416_0" type="pkw" depart="3319.0" from="-28675510#11" to="-186623965#14"/>
	<trip id="122488_406_0" type="pkw" depart="3320.0" from="186623965#9" to="28675510#7"/>
	<trip id="173200_427_0" type="pkw" depart="3322.0" from="-42925825#2" to="23840972"/>
	<trip id="189560_434_0" type="pkw" depart="3324.0" from="-42925825#2" to="-23840972"/>
	<trip id="113483_402_0" type="pkw" depart="3326.0" from="186623965#9" to="-23840888#0"/>
	<trip id="149141_417_0" type="pkw" depart="3326.0" from="-42925825#2" to="-186623965#14"/>
	<trip id="170852_426_0" type="pkw" depart="3329.0" from="-28675510#11" to="-186623965#14"/>
	<trip id="234007_451_0" type="pkw" depart="3331.0" from="-28675510#11" to="-186623965#14"/>
	<trip id="253433_458_0" type="pkw" depart="3335.0" from="186623965#9" to="186623965#17"/>
	<trip id="181372_431_0" type="pkw" depart="3337.0" from="-28675510#11" to="-23840712#0"/>
	<trip id="298180_481_0" type="pkw" depart="3337.0" from="290365598#0" to="-186623965#14"/>
	<trip id="240006_452_0" type="pkw" depart="3338.0" from="186623965#9" to="186623965#17"/>
	<trip id="284777_474_0" type="pkw" depart="3342.0" from="-28675510#11" to="-186623965#14"/>
	<trip id="295467_481_0" type="pkw" depart="3342.0" from="-42925825#2" to="-186623965#14"/>
	<trip id="194567_436_0" type="pkw" depart="3343.0" from="186623965#9" to="186623965#17"/>
	<trip id="233538_451_0" type="pkw" depart="3346.0" from="-42925825#2" to="186623965#17"/>
	<trip id="274307_467_0" type="pkw" depart="3351.0" from="186623965#9" to="22959552#2"/>
	<trip id="81115_389_0" type="pkw" depart="3352.0" from="-25168493" to="-25168493"/>
	<trip id="280771_471_0" type="pkw" depart="3354.0" from="-28675510#11" to="-186623965#14"/>
	<trip id="297762_481_0" type="pkw" depart="3358.0" from="-28675493" to="42925825#0"/>
	<trip id="284592_473_0" type="pkw" depart="3361.0" from="-28675510#11" to="23283435#1"/>
	<trip id="262433_462_0" type="pkw" depart="3367.0" from="-297047309#0" to="-186623965#14"/>
	<trip id="122051_406_0" type="pkw" depart="3369.0" from="-297047309#0" to="-28675494#1"/>
	<trip id="149489_417_0" type="pkw" depart="3371.0" from="-4936412" to="155723703#0"/>
	<trip id="253301_458_0" type="pkw" depart="3372.0" from="-42925825#2" to="-186623965#14"/>
	<trip id="169614_426_0" type="pkw" depart="3379.0" from="-28675510#11" to="-186623965#14"/>
	<trip id="270028_465_0" type="pkw" depart="3381.0" from="-186623965#14" to="-186623965#14"/>
	<trip id="182586_431_0" type="pkw" depart="3382.0" from="-42925825#2" to="23283470#2"/>
	<trip id="128572_408_0" type="pkw" depart="3384.0" from="-42925825#2" to="-8716807#4"/>
	<trip id="184587_431_0" type="pkw" depart="3387.0" from="-28675510#11" to="-186623965#14"/>
	<trip id="242344_452_0" type="pkw" depart="3387.0" from="-42925825#2" to="-186623965#14"/>
	<trip id="294603_480_0" type="pkw" depart="3388.0" from="186623965#9" to="28675510#7"/>
	<trip id="252863_458_0" type="pkw" depart="3393.0" from="-42925825#2" to="-186623965#14"/>
	<trip id="210543_441_0" type="pkw" depart="3397.0" from="-28675510#11" to="-186623965#14"/>
	<trip id="172267_426_0" type="pkw" depart="3399.0" from="-23283579#1" to="186623965#17"/>
	<trip id="151540_419_0" type="pkw" depart="3399.0" from="186623965#9" to="186623965#17"/>
	<trip id="144725_416_0" type="pkw" depart="3401.0" from="-28675510#11" to="-186623965#14"/>
	<trip id="242008_452_0" type="pkw" depart="3402.0" from="8716807#5" to="8716827#0"/>
	<trip id="216017_445_0" type="pkw" depart="3402.0" from="-8716807#4" to="-186623965#14"/>
	<trip id="251750_457_0" type="pkw" depart="3404.0" from="22959552#4" to="186623965#17"/>
	<trip id="210716_442_0" type="pkw" depart="3405.0" from="-28675510#11" to="-22917421#4"/>
	<trip id="269701_465_0" type="pkw" depart="3411.0" from="-8716807#4" to="28675510#7"/>
	<trip id="192406_435_0" type="pkw" depart="3413.0" from="-28675510#11" to="-186623965#14"/>
	<trip id="138489_412_0" type="pkw" depart="3418.0" from="155600123#0" to="23286179#2"/>
	<trip id="272570_466_0" type="pkw" depart="3420.0" from="8716807#5" to="42925825#0"/>
	<trip id="142946_415_0" type="pkw" depart="3425.0" from="-28675510#11" to="-28675493"/>
	<trip id="226518_450_0" type="pkw" depart="3427.0" from="-28675510#11" to="155723703#0"/>
	<trip id="290683_478_0" type="pkw" depart="3429.0" from="-28675510#11" to="22959552#0"/>
	<trip id="144167_416_0" type="pkw" depart="3430.0" from="-28675510#11" to="23647126"/>
	<trip id="222542_448_0" type="pkw" depart="3434.0" from="-28675510#11" to="42925825#0"/>
	<trip id="283336_472_0" type="pkw" depart="3436.0" from="-28675510#11" to="155723703#0"/>
	<trip id="236679_451_0" type="pkw" depart="3438.0" from="-353069169#0" to="23283470#5"/>
	<trip id="148523_417_0" type="pkw" depart="3439.0" from="186623965#9" to="22959552#4"/>
	<trip id="161186_421_0" type="pkw" depart="3440.0" from="-28675510#11" to="28675510#7"/>
	<trip id="179643_430_0" type="pkw" depart="3440.0" from="186623965#9" to="28675510#7"/>
	<trip id="213749_444_0" type="pkw" depart="3443.0" from="-28675510#11" to="28675510#7"/>
	<trip id="244622_453_0" type="pkw" depart="3449.0" from="-42925825#2" to="186623965#17"/>
	<trip id="218100_446_0" type="pkw" depart="3453.0" from="-42925825#2" to="186623965#17"/>
	<trip id="108559_400_0" type="pkw" depart="3455.0" from="-353069169#0" to="323416262"/>
	<trip id="288618_476_0" type="pkw" depart="3456.0" from="24694889" to="28675510#7"/>
	<trip id="190086_434_0" type="pkw" depart="3462.0" from="186623965#9" to="42925825#0"/>
	<trip id="273501_466_0" type="pkw" depart="3465.0" from="22959552#2" to="8716827#0"/>
	<trip id="278668_470_0" type="pkw" depart="3468.0" from="186623965#9" to="155723703#0"/>
	<trip id="196215_436_0" type="pkw" depart="3468.0" from="-42925825#2" to="297047309#0"/>
	<trip id="280693_471_0" type="pkw" depart="3480.0" from="186623965#9" to="186623965#17"/>
	<trip id="246798_455_0" type="pkw" depart="3483.0" from="-28675510#11" to="23840712#0"/>
	<trip id="298771_482_0" type="pkw" depart="3484.0" from="-42925825#2" to="186623965#17"/>
	<trip id="296204_481_0" type="pkw" depart="3486.0" from="23647126" to="186623965#17"/>
	<trip id="246969_455_0" type="pkw" depart="3486.0" from="-28675510#11" to="-186623965#14"/>
	<trip id="255249_459_0" type="pkw" depart="3487.0" from="22959550#3" to="23283435#1"/>
	<trip id="168214_425_0" type="pkw" depart="3487.0" from="186623965#9" to="186623965#17"/>
	<trip id="285800_475_0" type="pkw" depart="3488.0" from="24675285" to="23283435#1"/>
	<trip id="282087_471_0" type="pkw" depart="3494.0" from="23283470#3" to="8716827#0"/>
	<trip id="221681_448_0" type="pkw" depart="3495.0" from="-42925825#2" to="28675510#4"/>
	<trip id="184133_431_0" type="pkw" depart="3504.0" from="-323450710#0" to="25166682#0"/>
	<trip id="286799_475_0" type="pkw" depart="3512.0" from="-23840971" to="323416262"/>
	<trip id="290325_477_0" type="pkw" depart="3514.0" from="22917421#3" to="186623965#17"/>
	<trip id="267396_464_0" type="pkw" depart="3518.0" from="22917421#3" to="186623965#17"/>
	<trip id="189901_434_0" type="pkw" depart="3519.0" from="-42925825#2" to="23283579#0"/>
	<trip id="216599_446_0" type="pkw" depart="3529.0" from="-353069169#0" to="25166682#0"/>
	<trip id="270402_465_0" type="pkw" depart="3534.0" from="22917421#3" to="-186623965#14"/>
	<trip id="286337_475_0" type="pkw" depart="3535.0" from="22959552#1" to="23283436"/>
	<trip id="213782_444_0" type="pkw" depart="3536.0" from="160807420" to="8716827#0"/>
	<trip id="284594_473_0" type="pkw" depart="3537.0" from="23283580#0" to="28675510#7"/>
	<trip id="120832_405_0" type="pkw" depart="3544.0" from="186623965#9" to="186623965#17"/>
	<trip id="297486_481_0" type="pkw" depart="3544.0" from="22959550#0" to="-186623965#14"/>
	<trip id="260022_461_0" type="pkw" depart="3546.0" from="8716807#1" to="-186623965#14"/>
	<trip id="286157_475_0" type="pkw" depart="3546.0" from="23283470#3" to="23283579#1"/>
	<trip id="237094_451_0" type="pkw" depart="3555.0" from="-4936412" to="8716827#0"/>
	<trip id="111209_401_0" type="pkw" depart="3558.0" from="186623965#9" to="-297047308"/>
	<trip id="256248_460_0" type="pkw" depart="3560.0" from="8716807#1" to="-186623965#14"/>
	<trip id="277259_469_0" type="pkw" depart="3561.0" from="-8716807#0" to="28675510#7"/>
	<trip id="252335_457_0" type="pkw" depart="3563.0" from="8716807#1" to="-186623965#14"/>
	<trip id="270943_466_0" type="pkw" depart="3565.0" from="8716807#1" to="186623965#17"/>
	<trip id="262463_462_0" type="pkw" depart="3568.0" from="8716807#1" to="28675510#7"/>
	<trip id="268007_465_0" type="pkw" depart="3571.0" from="8716807#1" to="-186623965#14"/>
	<trip id="179131_430_0" type="pkw" depart="3574.0" from="-42925825#2" to="23840972"/>
	<trip id="264169_463_0" type="pkw" depart="3575.0" from="-323450710#0" to="186623965#17"/>
	<trip id="172865_426_0" type="pkw" depart="3576.0" from="-42925825#2" to="23840713#2"/>
	<trip id="236158_451_0" type="pkw" depart="3578.0" from="186623965#9" to="186623965#17"/>
	<trip id="288072_476_0" type="pkw" depart="3580.0" from="23286179#2" to="23286179#2"/>
	<trip id="196318_436_0" type="pkw" depart="3581.0" from="-42925825#2" to="60909001"/>
	<trip id="297539_481_0" type="pkw" depart="3582.0" from="-25168493" to="25168493"/>
	<trip id="219685_447_0" type="pkw" depart="3585.0" from="-353069169#0" to="-28675493"/>
	<trip id="245180_454_0" type="pkw" depart="3586.0" from="-4936412" to="8716827#0"/>
	<trip id="189724_434_0" type="pkw" depart="3589.0" from="-353069169#0" to="23283579#1"/>
	<trip id="272105_466_0" type="pkw" depart="3598.0" from="-28675510#11" to="23283579#1"/>
</routes>
